REMARK  11 active torsions:
REMARK  status: ('A' for Active; 'I' for Inactive)
REMARK    1  A    between atoms: C_1  and  N_21 
REMARK    2  A    between atoms: C_4  and  C_18 
REMARK    3  A    between atoms: C_6  and  O_7 
REMARK    4  A    between atoms: O_7  and  C_8 
REMARK    5  A    between atoms: C_8  and  C_9 
REMARK    6  A    between atoms: C_9  and  O_10 
REMARK    7  A    between atoms: C_9  and  C_12 
REMARK    8  A    between atoms: C_12  and  N_13 
REMARK    9  A    between atoms: N_13  and  C_15 
REMARK       I    between atoms: N_21  and  C_22 
REMARK   10  A    between atoms: C_22  and  C_25 
REMARK   11  A    between atoms: C_25  and  C_26 
ROOT
HETATM    1  C   UNK N   1       1.925   1.234  -1.933  0.00  0.00     0.059 A 
HETATM    2  C   UNK N   1       0.982   1.532  -0.946  0.00  0.00     0.022 A 
HETATM    3  C   UNK N   1       2.183  -0.106  -2.249  0.00  0.00     0.019 A 
HETATM    4  C   UNK N   1       0.292   0.501  -0.292  0.00  0.00     0.058 A 
HETATM    5  C   UNK N   1       1.500  -1.135  -1.597  0.00  0.00     0.026 A 
HETATM    6  C   UNK N   1       0.566  -0.832  -0.607  0.00  0.00     0.097 A 
ENDROOT
BRANCH   6   7
HETATM    7  O   UNK N   1      -0.146  -1.854  -0.041  0.00  0.00    -0.328 OA
BRANCH   7   8
HETATM    8  C   UNK N   1       0.617  -2.493   0.997  0.00  0.00     0.180 C 
BRANCH   8   9
HETATM    9  C   UNK N   1      -0.265  -3.480   1.771  0.00  0.00     0.174 C 
BRANCH   9  10
HETATM   10  O   UNK N   1      -0.572  -4.615   0.943  0.00  0.00    -0.380 OA
HETATM   11  H   UNK N   1      -1.434  -4.936   1.282  0.00  0.00     0.211 HD
ENDBRANCH   9  10
BRANCH   9  12
HETATM   12  C   UNK N   1      -1.583  -2.853   2.270  0.00  0.00     0.278 C 
BRANCH  12  13
HETATM   13  N   UNK N   1      -2.400  -3.907   2.917  0.00  0.00     0.116 N 
HETATM   14  H   UNK N   1      -1.864  -4.279   3.703  0.00  0.00     0.318 HD
BRANCH  13  15
HETATM   15  C   UNK N   1      -3.676  -3.380   3.428  0.00  0.00     0.216 C 
HETATM   16  C   UNK N   1      -4.668  -3.094   2.300  0.00  0.00     0.035 C 
HETATM   17  C   UNK N   1      -4.275  -4.415   4.385  0.00  0.00     0.035 C 
ENDBRANCH  13  15
ENDBRANCH  12  13
ENDBRANCH   9  12
ENDBRANCH   8   9
ENDBRANCH   7   8
ENDBRANCH   6   7
BRANCH   4  18
HETATM   18  C   UNK N   1      -0.706   0.846   0.748  0.00  0.00     0.175 C 
HETATM   19  O   UNK N   1      -0.672   0.297   1.847  0.00  0.00    -0.291 OA
HETATM   20  C   UNK N   1      -1.718   1.912   0.421  0.00  0.00     0.077 C 
ENDBRANCH   4  18
BRANCH   1  21
HETATM   21  N   UNK N   1       2.660   2.215  -2.629  0.00  0.00    -0.325 N 
HETATM   22  C   UNK N   1       2.387   3.573  -2.689  0.00  0.00     0.234 C 
HETATM   23  O   UNK N   1       1.439   4.142  -2.160  0.00  0.00    -0.272 OA
HETATM   24  H   UNK N   1       3.441   1.882  -3.181  0.00  0.00     0.169 HD
BRANCH  22  25
HETATM   25  C   UNK N   1       3.420   4.312  -3.526  0.00  0.00     0.088 C 
BRANCH  25  26
HETATM   26  C   UNK N   1       3.158   5.814  -3.587  0.00  0.00     0.010 C 
HETATM   27  C   UNK N   1       4.205   6.529  -4.425  0.00  0.00     0.001 C 
ENDBRANCH  25  26
ENDBRANCH  22  25
ENDBRANCH   1  21
TORSDOF 11
