MODEL 1
REMARK VINA RESULT:      -7.2      0.000      0.000
REMARK  11 active torsions:
REMARK  status: ('A' for Active; 'I' for Inactive)
REMARK       I    between atoms: C_2  and  N_3 
REMARK    1  A    between atoms: C_2  and  C_4 
REMARK    2  A    between atoms: N_3  and  C_5 
REMARK    3  A    between atoms: C_4  and  C_6 
REMARK    4  A    between atoms: C_10  and  C_13 
REMARK    5  A    between atoms: C_12  and  O_14 
REMARK    6  A    between atoms: O_14  and  C_17 
REMARK    7  A    between atoms: C_17  and  C_18 
REMARK    8  A    between atoms: C_18  and  O_19 
REMARK    9  A    between atoms: C_18  and  C_20 
REMARK   10  A    between atoms: C_20  and  N_21 
REMARK   11  A    between atoms: N_21  and  C_22 
ROOT
HETATM    1  C   UNK N   1      90.238  14.799  41.241  0.00  0.00     0.035 A 
HETATM    2  C   UNK N   1      90.760  15.593  42.266  0.00  0.00     0.047 A 
HETATM    3  C   UNK N   1      89.017  14.143  41.441  0.00  0.00     0.032 A 
HETATM    4  C   UNK N   1      90.075  15.718  43.483  0.00  0.00     0.045 A 
HETATM    5  C   UNK N   1      88.331  14.268  42.651  0.00  0.00     0.040 A 
HETATM    6  C   UNK N   1      88.852  15.069  43.666  0.00  0.00     0.082 A 
ENDROOT
BRANCH   6   7
HETATM    7  O   UNK N   1      88.202  15.109  44.869  0.00  0.00    -0.348 OA
BRANCH   7   8
HETATM    8  C   UNK N   1      87.778  13.793  45.263  0.00  0.00     0.209 C 
BRANCH   8   9
HETATM    9  C   UNK N   1      86.362  13.846  45.848  0.00  0.00     0.170 C 
BRANCH   9  10
HETATM   10  O   UNK N   1      86.338  14.716  46.993  0.00  0.00    -0.392 OA
HETATM   11  H   UNK N   1      85.621  14.355  47.556  0.00  0.00     0.210 HD
ENDBRANCH   9  10
BRANCH   9  12
HETATM   12  C   UNK N   1      85.304  14.325  44.833  0.00  0.00     0.303 C 
BRANCH  12  13
HETATM   13  N   UNK N   1      85.417  15.795  44.680  0.00  0.00     0.089 N 
HETATM   14  H   UNK N   1      86.035  16.139  45.417  0.00  0.00     0.316 HD
BRANCH  13  15
HETATM   15  C   UNK N   1      84.113  16.465  44.810  0.00  0.00     0.212 C 
HETATM   16  C   UNK N   1      84.026  17.303  46.086  0.00  0.00     0.042 C 
HETATM   17  C   UNK N   1      83.020  15.392  44.828  0.00  0.00     0.042 C 
ENDBRANCH  13  15
ENDBRANCH  12  13
ENDBRANCH   9  12
ENDBRANCH   8   9
ENDBRANCH   7   8
ENDBRANCH   6   7
BRANCH   4  18
HETATM   18  C   UNK N   1      90.654  16.564  44.554  0.00  0.00     0.158 C 
HETATM   19  O   UNK N   1      90.754  16.131  45.699  0.00  0.00    -0.293 OA
HETATM   20  C   UNK N   1      91.065  17.966  44.193  0.00  0.00     0.097 C 
ENDBRANCH   4  18
BRANCH   1  21
HETATM   21  N   UNK N   1      90.866  14.629  39.991  0.00  0.00    -0.327 N 
HETATM   22  C   UNK N   1      92.159  14.184  39.762  0.00  0.00     0.222 C 
HETATM   23  O   UNK N   1      92.966  13.840  40.619  0.00  0.00    -0.273 OA
HETATM   24  H   UNK N   1      90.294  14.806  39.174  0.00  0.00     0.169 HD
BRANCH  22  25
HETATM   25  C   UNK N   1      92.482  14.150  38.276  0.00  0.00     0.103 C 
BRANCH  25  26
HETATM   26  C   UNK N   1      92.479  12.734  37.708  0.00  0.00     0.005 C 
HETATM   27  C   UNK N   1      93.820  12.048  37.912  0.00  0.00     0.005 C 
ENDBRANCH  25  26
ENDBRANCH  22  25
ENDBRANCH   1  21
TORSDOF 11
ENDMDL
MODEL 2
REMARK VINA RESULT:      -6.9      2.149      2.527
REMARK  11 active torsions:
REMARK  status: ('A' for Active; 'I' for Inactive)
REMARK       I    between atoms: C_2  and  N_3 
REMARK    1  A    between atoms: C_2  and  C_4 
REMARK    2  A    between atoms: N_3  and  C_5 
REMARK    3  A    between atoms: C_4  and  C_6 
REMARK    4  A    between atoms: C_10  and  C_13 
REMARK    5  A    between atoms: C_12  and  O_14 
REMARK    6  A    between atoms: O_14  and  C_17 
REMARK    7  A    between atoms: C_17  and  C_18 
REMARK    8  A    between atoms: C_18  and  O_19 
REMARK    9  A    between atoms: C_18  and  C_20 
REMARK   10  A    between atoms: C_20  and  N_21 
REMARK   11  A    between atoms: N_21  and  C_22 
ROOT
HETATM    1  C   UNK N   1      92.874  14.869  42.088  0.00  0.00     0.035 A 
HETATM    2  C   UNK N   1      92.610  15.691  43.187  0.00  0.00     0.047 A 
HETATM    3  C   UNK N   1      91.803  14.364  41.339  0.00  0.00     0.032 A 
HETATM    4  C   UNK N   1      91.288  15.992  43.543  0.00  0.00     0.045 A 
HETATM    5  C   UNK N   1      90.485  14.665  41.690  0.00  0.00     0.040 A 
HETATM    6  C   UNK N   1      90.228  15.492  42.783  0.00  0.00     0.082 A 
ENDROOT
BRANCH   6   7
HETATM    7  O   UNK N   1      88.929  15.705  43.152  0.00  0.00    -0.348 OA
BRANCH   7   8
HETATM    8  C   UNK N   1      88.155  14.502  43.008  0.00  0.00     0.209 C 
BRANCH   8   9
HETATM    9  C   UNK N   1      87.677  14.013  44.381  0.00  0.00     0.170 C 
BRANCH   9  10
HETATM   10  O   UNK N   1      88.291  14.794  45.420  0.00  0.00    -0.392 OA
HETATM   11  H   UNK N   1      87.623  14.808  46.138  0.00  0.00     0.210 HD
ENDBRANCH   9  10
BRANCH   9  12
HETATM   12  C   UNK N   1      86.144  14.075  44.546  0.00  0.00     0.303 C 
BRANCH  12  13
HETATM   13  N   UNK N   1      85.810  15.150  45.510  0.00  0.00     0.089 N 
HETATM   14  H   UNK N   1      85.444  14.709  46.356  0.00  0.00     0.316 HD
BRANCH  13  15
HETATM   15  C   UNK N   1      84.788  16.067  44.980  0.00  0.00     0.212 C 
HETATM   16  C   UNK N   1      84.176  16.937  46.080  0.00  0.00     0.042 C 
HETATM   17  C   UNK N   1      83.688  15.232  44.318  0.00  0.00     0.042 C 
ENDBRANCH  13  15
ENDBRANCH  12  13
ENDBRANCH   9  12
ENDBRANCH   8   9
ENDBRANCH   7   8
ENDBRANCH   6   7
BRANCH   4  18
HETATM   18  C   UNK N   1      91.036  16.862  44.716  0.00  0.00     0.158 C 
HETATM   19  O   UNK N   1      90.667  16.375  45.782  0.00  0.00    -0.293 OA
HETATM   20  C   UNK N   1      91.207  18.347  44.536  0.00  0.00     0.097 C 
ENDBRANCH   4  18
BRANCH   1  21
HETATM   21  N   UNK N   1      94.175  14.527  41.666  0.00  0.00    -0.327 N 
HETATM   22  C   UNK N   1      95.172  13.945  42.434  0.00  0.00     0.222 C 
HETATM   23  O   UNK N   1      95.075  13.609  43.609  0.00  0.00    -0.273 OA
HETATM   24  H   UNK N   1      94.384  14.680  40.687  0.00  0.00     0.169 HD
BRANCH  22  25
HETATM   25  C   UNK N   1      96.448  13.744  41.629  0.00  0.00     0.103 C 
BRANCH  25  26
HETATM   26  C   UNK N   1      96.191  13.699  40.126  0.00  0.00     0.005 C 
HETATM   27  C   UNK N   1      96.092  12.270  39.619  0.00  0.00     0.005 C 
ENDBRANCH  25  26
ENDBRANCH  22  25
ENDBRANCH   1  21
TORSDOF 11
ENDMDL
MODEL 3
REMARK VINA RESULT:      -6.8     16.534     18.438
REMARK  11 active torsions:
REMARK  status: ('A' for Active; 'I' for Inactive)
REMARK       I    between atoms: C_2  and  N_3 
REMARK    1  A    between atoms: C_2  and  C_4 
REMARK    2  A    between atoms: N_3  and  C_5 
REMARK    3  A    between atoms: C_4  and  C_6 
REMARK    4  A    between atoms: C_10  and  C_13 
REMARK    5  A    between atoms: C_12  and  O_14 
REMARK    6  A    between atoms: O_14  and  C_17 
REMARK    7  A    between atoms: C_17  and  C_18 
REMARK    8  A    between atoms: C_18  and  O_19 
REMARK    9  A    between atoms: C_18  and  C_20 
REMARK   10  A    between atoms: C_20  and  N_21 
REMARK   11  A    between atoms: N_21  and  C_22 
ROOT
HETATM    1  C   UNK N   1      81.163  27.150  36.810  0.00  0.00     0.035 A 
HETATM    2  C   UNK N   1      80.398  28.184  37.356  0.00  0.00     0.047 A 
HETATM    3  C   UNK N   1      80.624  26.374  35.776  0.00  0.00     0.032 A 
HETATM    4  C   UNK N   1      79.100  28.429  36.885  0.00  0.00     0.045 A 
HETATM    5  C   UNK N   1      79.333  26.618  35.302  0.00  0.00     0.040 A 
HETATM    6  C   UNK N   1      78.577  27.655  35.845  0.00  0.00     0.082 A 
ENDROOT
BRANCH   6   7
HETATM    7  O   UNK N   1      77.288  27.821  35.419  0.00  0.00    -0.348 OA
BRANCH   7   8
HETATM    8  C   UNK N   1      77.257  28.261  34.050  0.00  0.00     0.209 C 
BRANCH   8   9
HETATM    9  C   UNK N   1      76.165  29.321  33.860  0.00  0.00     0.170 C 
BRANCH   9  10
HETATM   10  O   UNK N   1      76.484  30.495  34.627  0.00  0.00    -0.392 OA
HETATM   11  H   UNK N   1      75.954  30.399  35.447  0.00  0.00     0.210 HD
ENDBRANCH   9  10
BRANCH   9  12
HETATM   12  C   UNK N   1      75.964  29.726  32.385  0.00  0.00     0.303 C 
BRANCH  12  13
HETATM   13  N   UNK N   1      74.544  29.510  32.019  0.00  0.00     0.089 N 
HETATM   14  H   UNK N   1      73.980  30.181  32.543  0.00  0.00     0.316 HD
BRANCH  13  15
HETATM   15  C   UNK N   1      74.089  28.151  32.354  0.00  0.00     0.212 C 
HETATM   16  C   UNK N   1      74.265  27.184  31.183  0.00  0.00     0.042 C 
HETATM   17  C   UNK N   1      72.608  28.222  32.740  0.00  0.00     0.042 C 
ENDBRANCH  13  15
ENDBRANCH  12  13
ENDBRANCH   9  12
ENDBRANCH   8   9
ENDBRANCH   7   8
ENDBRANCH   6   7
BRANCH   4  18
HETATM   18  C   UNK N   1      78.308  29.528  37.486  0.00  0.00     0.158 C 
HETATM   19  O   UNK N   1      78.395  30.669  37.040  0.00  0.00    -0.293 OA
HETATM   20  C   UNK N   1      77.442  29.200  38.673  0.00  0.00     0.097 C 
ENDBRANCH   4  18
BRANCH   1  21
HETATM   21  N   UNK N   1      82.475  26.848  37.229  0.00  0.00    -0.327 N 
HETATM   22  C   UNK N   1      82.868  25.794  38.039  0.00  0.00     0.222 C 
HETATM   23  O   UNK N   1      82.133  24.932  38.508  0.00  0.00    -0.273 OA
HETATM   24  H   UNK N   1      83.210  27.437  36.858  0.00  0.00     0.169 HD
BRANCH  22  25
HETATM   25  C   UNK N   1      84.370  25.810  38.283  0.00  0.00     0.103 C 
BRANCH  25  26
HETATM   26  C   UNK N   1      85.025  24.463  37.988  0.00  0.00     0.005 C 
HETATM   27  C   UNK N   1      86.337  24.305  38.738  0.00  0.00     0.005 C 
ENDBRANCH  25  26
ENDBRANCH  22  25
ENDBRANCH   1  21
TORSDOF 11
ENDMDL
MODEL 4
REMARK VINA RESULT:      -6.7      2.855      3.917
REMARK  11 active torsions:
REMARK  status: ('A' for Active; 'I' for Inactive)
REMARK       I    between atoms: C_2  and  N_3 
REMARK    1  A    between atoms: C_2  and  C_4 
REMARK    2  A    between atoms: N_3  and  C_5 
REMARK    3  A    between atoms: C_4  and  C_6 
REMARK    4  A    between atoms: C_10  and  C_13 
REMARK    5  A    between atoms: C_12  and  O_14 
REMARK    6  A    between atoms: O_14  and  C_17 
REMARK    7  A    between atoms: C_17  and  C_18 
REMARK    8  A    between atoms: C_18  and  O_19 
REMARK    9  A    between atoms: C_18  and  C_20 
REMARK   10  A    between atoms: C_20  and  N_21 
REMARK   11  A    between atoms: N_21  and  C_22 
ROOT
HETATM    1  C   UNK N   1      93.435  14.987  42.348  0.00  0.00     0.035 A 
HETATM    2  C   UNK N   1      92.977  15.755  43.422  0.00  0.00     0.047 A 
HETATM    3  C   UNK N   1      92.519  14.538  41.389  0.00  0.00     0.032 A 
HETATM    4  C   UNK N   1      91.613  16.057  43.545  0.00  0.00     0.045 A 
HETATM    5  C   UNK N   1      91.160  14.840  41.507  0.00  0.00     0.040 A 
HETATM    6  C   UNK N   1      90.710  15.613  42.577  0.00  0.00     0.082 A 
ENDROOT
BRANCH   6   7
HETATM    7  O   UNK N   1      89.365  15.826  42.711  0.00  0.00    -0.348 OA
BRANCH   7   8
HETATM    8  C   UNK N   1      88.637  14.596  42.555  0.00  0.00     0.209 C 
BRANCH   8   9
HETATM    9  C   UNK N   1      88.313  13.994  43.927  0.00  0.00     0.170 C 
BRANCH   9  10
HETATM   10  O   UNK N   1      88.118  15.046  44.889  0.00  0.00    -0.392 OA
HETATM   11  H   UNK N   1      87.206  15.363  44.719  0.00  0.00     0.210 HD
ENDBRANCH   9  10
BRANCH   9  12
HETATM   12  C   UNK N   1      87.063  13.091  43.913  0.00  0.00     0.303 C 
BRANCH  12  13
HETATM   13  N   UNK N   1      86.453  13.138  42.563  0.00  0.00     0.089 N 
HETATM   14  H   UNK N   1      85.557  13.624  42.642  0.00  0.00     0.316 HD
BRANCH  13  15
HETATM   15  C   UNK N   1      86.209  11.791  42.020  0.00  0.00     0.212 C 
HETATM   16  C   UNK N   1      87.061  10.731  42.720  0.00  0.00     0.042 C 
HETATM   17  C   UNK N   1      86.541  11.808  40.525  0.00  0.00     0.042 C 
ENDBRANCH  13  15
ENDBRANCH  12  13
ENDBRANCH   9  12
ENDBRANCH   8   9
ENDBRANCH   7   8
ENDBRANCH   6   7
BRANCH   4  18
HETATM   18  C   UNK N   1      91.154  16.869  44.697  0.00  0.00     0.158 C 
HETATM   19  O   UNK N   1      90.698  16.323  45.698  0.00  0.00    -0.293 OA
HETATM   20  C   UNK N   1      91.228  18.368  44.570  0.00  0.00     0.097 C 
ENDBRANCH   4  18
BRANCH   1  21
HETATM   21  N   UNK N   1      94.790  14.648  42.156  0.00  0.00    -0.327 N 
HETATM   22  C   UNK N   1      95.438  13.513  42.620  0.00  0.00     0.222 C 
HETATM   23  O   UNK N   1      94.925  12.601  43.258  0.00  0.00    -0.273 OA
HETATM   24  H   UNK N   1      95.332  15.278  41.578  0.00  0.00     0.169 HD
BRANCH  22  25
HETATM   25  C   UNK N   1      96.907  13.510  42.224  0.00  0.00     0.103 C 
BRANCH  25  26
HETATM   26  C   UNK N   1      97.107  13.637  40.717  0.00  0.00     0.005 C 
HETATM   27  C   UNK N   1      96.508  12.455  39.973  0.00  0.00     0.005 C 
ENDBRANCH  25  26
ENDBRANCH  22  25
ENDBRANCH   1  21
TORSDOF 11
ENDMDL
MODEL 5
REMARK VINA RESULT:      -6.7      2.510      8.593
REMARK  11 active torsions:
REMARK  status: ('A' for Active; 'I' for Inactive)
REMARK       I    between atoms: C_2  and  N_3 
REMARK    1  A    between atoms: C_2  and  C_4 
REMARK    2  A    between atoms: N_3  and  C_5 
REMARK    3  A    between atoms: C_4  and  C_6 
REMARK    4  A    between atoms: C_10  and  C_13 
REMARK    5  A    between atoms: C_12  and  O_14 
REMARK    6  A    between atoms: O_14  and  C_17 
REMARK    7  A    between atoms: C_17  and  C_18 
REMARK    8  A    between atoms: C_18  and  O_19 
REMARK    9  A    between atoms: C_18  and  C_20 
REMARK   10  A    between atoms: C_20  and  N_21 
REMARK   11  A    between atoms: N_21  and  C_22 
ROOT
HETATM    1  C   UNK N   1      88.639  15.092  43.354  0.00  0.00     0.035 A 
HETATM    2  C   UNK N   1      89.686  15.835  43.905  0.00  0.00     0.047 A 
HETATM    3  C   UNK N   1      88.888  14.287  42.234  0.00  0.00     0.032 A 
HETATM    4  C   UNK N   1      90.966  15.786  43.333  0.00  0.00     0.045 A 
HETATM    5  C   UNK N   1      90.162  14.234  41.665  0.00  0.00     0.040 A 
HETATM    6  C   UNK N   1      91.205  14.971  42.225  0.00  0.00     0.082 A 
ENDROOT
BRANCH   6   7
HETATM    7  O   UNK N   1      92.422  14.963  41.600  0.00  0.00    -0.348 OA
BRANCH   7   8
HETATM    8  C   UNK N   1      92.425  14.034  40.502  0.00  0.00     0.209 C 
BRANCH   8   9
HETATM    9  C   UNK N   1      93.864  13.738  40.064  0.00  0.00     0.170 C 
BRANCH   9  10
HETATM   10  O   UNK N   1      93.993  13.931  38.645  0.00  0.00    -0.392 OA
HETATM   11  H   UNK N   1      93.754  14.872  38.506  0.00  0.00     0.210 HD
ENDBRANCH   9  10
BRANCH   9  12
HETATM   12  C   UNK N   1      94.910  14.612  40.785  0.00  0.00     0.303 C 
BRANCH  12  13
HETATM   13  N   UNK N   1      96.226  14.423  40.130  0.00  0.00     0.089 N 
HETATM   14  H   UNK N   1      96.076  13.880  39.278  0.00  0.00     0.316 HD
BRANCH  13  15
HETATM   15  C   UNK N   1      97.171  13.693  40.991  0.00  0.00     0.212 C 
HETATM   16  C   UNK N   1      98.576  14.294  40.935  0.00  0.00     0.042 C 
HETATM   17  C   UNK N   1      97.220  12.236  40.523  0.00  0.00     0.042 C 
ENDBRANCH  13  15
ENDBRANCH  12  13
ENDBRANCH   9  12
ENDBRANCH   8   9
ENDBRANCH   7   8
ENDBRANCH   6   7
BRANCH   4  18
HETATM   18  C   UNK N   1      92.057  16.588  43.936  0.00  0.00     0.158 C 
HETATM   19  O   UNK N   1      93.090  16.042  44.317  0.00  0.00    -0.293 OA
HETATM   20  C   UNK N   1      91.832  18.068  44.098  0.00  0.00     0.097 C 
ENDBRANCH   4  18
BRANCH   1  21
HETATM   21  N   UNK N   1      87.330  15.087  43.875  0.00  0.00    -0.327 N 
HETATM   22  C   UNK N   1      86.930  14.618  45.117  0.00  0.00     0.222 C 
HETATM   23  O   UNK N   1      87.662  14.147  45.980  0.00  0.00    -0.273 OA
HETATM   24  H   UNK N   1      86.616  15.517  43.298  0.00  0.00     0.169 HD
BRANCH  22  25
HETATM   25  C   UNK N   1      85.428  14.767  45.311  0.00  0.00     0.103 C 
BRANCH  25  26
HETATM   26  C   UNK N   1      84.945  16.194  45.068  0.00  0.00     0.005 C 
HETATM   27  C   UNK N   1      83.589  16.215  44.383  0.00  0.00     0.005 C 
ENDBRANCH  25  26
ENDBRANCH  22  25
ENDBRANCH   1  21
TORSDOF 11
ENDMDL
MODEL 6
REMARK VINA RESULT:      -6.6     27.981     30.745
REMARK  11 active torsions:
REMARK  status: ('A' for Active; 'I' for Inactive)
REMARK       I    between atoms: C_2  and  N_3 
REMARK    1  A    between atoms: C_2  and  C_4 
REMARK    2  A    between atoms: N_3  and  C_5 
REMARK    3  A    between atoms: C_4  and  C_6 
REMARK    4  A    between atoms: C_10  and  C_13 
REMARK    5  A    between atoms: C_12  and  O_14 
REMARK    6  A    between atoms: O_14  and  C_17 
REMARK    7  A    between atoms: C_17  and  C_18 
REMARK    8  A    between atoms: C_18  and  O_19 
REMARK    9  A    between atoms: C_18  and  C_20 
REMARK   10  A    between atoms: C_20  and  N_21 
REMARK   11  A    between atoms: N_21  and  C_22 
ROOT
HETATM    1  C   UNK N   1      80.434   5.591  17.030  0.00  0.00     0.035 A 
HETATM    2  C   UNK N   1      80.719   6.009  15.728  0.00  0.00     0.047 A 
HETATM    3  C   UNK N   1      79.221   5.970  17.619  0.00  0.00     0.032 A 
HETATM    4  C   UNK N   1      79.807   6.811  15.026  0.00  0.00     0.045 A 
HETATM    5  C   UNK N   1      78.309   6.766  16.922  0.00  0.00     0.040 A 
HETATM    6  C   UNK N   1      78.595   7.173  15.619  0.00  0.00     0.082 A 
ENDROOT
BRANCH   6   7
HETATM    7  O   UNK N   1      77.723   8.017  14.990  0.00  0.00    -0.348 OA
BRANCH   7   8
HETATM    8  C   UNK N   1      76.588   8.295  15.829  0.00  0.00     0.209 C 
BRANCH   8   9
HETATM    9  C   UNK N   1      75.366   8.638  14.969  0.00  0.00     0.170 C 
BRANCH   9  10
HETATM   10  O   UNK N   1      75.526   9.945  14.390  0.00  0.00    -0.392 OA
HETATM   11  H   UNK N   1      75.890   9.770  13.496  0.00  0.00     0.210 HD
ENDBRANCH   9  10
BRANCH   9  12
HETATM   12  C   UNK N   1      75.113   7.618  13.840  0.00  0.00     0.303 C 
BRANCH  12  13
HETATM   13  N   UNK N   1      74.942   6.273  14.440  0.00  0.00     0.089 N 
HETATM   14  H   UNK N   1      74.953   5.588  13.681  0.00  0.00     0.316 HD
BRANCH  13  15
HETATM   15  C   UNK N   1      73.666   6.149  15.163  0.00  0.00     0.212 C 
HETATM   16  C   UNK N   1      73.864   5.621  16.584  0.00  0.00     0.042 C 
HETATM   17  C   UNK N   1      72.761   5.191  14.383  0.00  0.00     0.042 C 
ENDBRANCH  13  15
ENDBRANCH  12  13
ENDBRANCH   9  12
ENDBRANCH   8   9
ENDBRANCH   7   8
ENDBRANCH   6   7
BRANCH   4  18
HETATM   18  C   UNK N   1      80.137   7.244  13.648  0.00  0.00     0.158 C 
HETATM   19  O   UNK N   1      80.705   8.315  13.453  0.00  0.00    -0.293 OA
HETATM   20  C   UNK N   1      79.712   6.350  12.513  0.00  0.00     0.097 C 
ENDBRANCH   4  18
BRANCH   1  21
HETATM   21  N   UNK N   1      81.299   4.781  17.794  0.00  0.00    -0.327 N 
HETATM   22  C   UNK N   1      81.342   3.396  17.812  0.00  0.00     0.222 C 
HETATM   23  O   UNK N   1      80.644   2.644  17.141  0.00  0.00    -0.273 OA
HETATM   24  H   UNK N   1      81.991   5.266  18.351  0.00  0.00     0.169 HD
BRANCH  22  25
HETATM   25  C   UNK N   1      82.400   2.884  18.778  0.00  0.00     0.103 C 
BRANCH  25  26
HETATM   26  C   UNK N   1      81.871   1.787  19.698  0.00  0.00     0.005 C 
HETATM   27  C   UNK N   1      80.713   2.283  20.548  0.00  0.00     0.005 C 
ENDBRANCH  25  26
ENDBRANCH  22  25
ENDBRANCH   1  21
TORSDOF 11
ENDMDL
MODEL 7
REMARK VINA RESULT:      -6.6     12.386     14.776
REMARK  11 active torsions:
REMARK  status: ('A' for Active; 'I' for Inactive)
REMARK       I    between atoms: C_2  and  N_3 
REMARK    1  A    between atoms: C_2  and  C_4 
REMARK    2  A    between atoms: N_3  and  C_5 
REMARK    3  A    between atoms: C_4  and  C_6 
REMARK    4  A    between atoms: C_10  and  C_13 
REMARK    5  A    between atoms: C_12  and  O_14 
REMARK    6  A    between atoms: O_14  and  C_17 
REMARK    7  A    between atoms: C_17  and  C_18 
REMARK    8  A    between atoms: C_18  and  O_19 
REMARK    9  A    between atoms: C_18  and  C_20 
REMARK   10  A    between atoms: C_20  and  N_21 
REMARK   11  A    between atoms: N_21  and  C_22 
ROOT
HETATM    1  C   UNK N   1      83.260  27.540  38.152  0.00  0.00     0.035 A 
HETATM    2  C   UNK N   1      82.022  27.795  37.558  0.00  0.00     0.047 A 
HETATM    3  C   UNK N   1      83.734  26.223  38.205  0.00  0.00     0.032 A 
HETATM    4  C   UNK N   1      81.257  26.742  37.036  0.00  0.00     0.045 A 
HETATM    5  C   UNK N   1      82.976  25.172  37.683  0.00  0.00     0.040 A 
HETATM    6  C   UNK N   1      81.745  25.434  37.084  0.00  0.00     0.082 A 
ENDROOT
BRANCH   6   7
HETATM    7  O   UNK N   1      80.988  24.379  36.653  0.00  0.00    -0.348 OA
BRANCH   7   8
HETATM    8  C   UNK N   1      80.266  23.790  37.749  0.00  0.00     0.209 C 
BRANCH   8   9
HETATM    9  C   UNK N   1      80.592  22.296  37.855  0.00  0.00     0.170 C 
BRANCH   9  10
HETATM   10  O   UNK N   1      81.288  21.861  36.674  0.00  0.00    -0.392 OA
HETATM   11  H   UNK N   1      81.763  22.662  36.365  0.00  0.00     0.210 HD
ENDBRANCH   9  10
BRANCH   9  12
HETATM   12  C   UNK N   1      81.443  21.948  39.094  0.00  0.00     0.303 C 
BRANCH  12  13
HETATM   13  N   UNK N   1      80.902  20.716  39.716  0.00  0.00     0.089 N 
HETATM   14  H   UNK N   1      80.100  20.411  39.161  0.00  0.00     0.316 HD
BRANCH  13  15
HETATM   15  C   UNK N   1      80.454  20.946  41.099  0.00  0.00     0.212 C 
HETATM   16  C   UNK N   1      80.161  22.423  41.365  0.00  0.00     0.042 C 
HETATM   17  C   UNK N   1      81.557  20.466  42.048  0.00  0.00     0.042 C 
ENDBRANCH  13  15
ENDBRANCH  12  13
ENDBRANCH   9  12
ENDBRANCH   8   9
ENDBRANCH   7   8
ENDBRANCH   6   7
BRANCH   4  18
HETATM   18  C   UNK N   1      79.945  27.040  36.414  0.00  0.00     0.158 C 
HETATM   19  O   UNK N   1      79.842  27.123  35.193  0.00  0.00    -0.293 OA
HETATM   20  C   UNK N   1      78.774  27.277  37.331  0.00  0.00     0.097 C 
ENDBRANCH   4  18
BRANCH   1  21
HETATM   21  N   UNK N   1      84.086  28.546  38.693  0.00  0.00    -0.327 N 
HETATM   22  C   UNK N   1      84.580  28.611  39.987  0.00  0.00     0.222 C 
HETATM   23  O   UNK N   1      84.396  27.782  40.872  0.00  0.00    -0.273 OA
HETATM   24  H   UNK N   1      84.386  29.271  38.054  0.00  0.00     0.169 HD
BRANCH  22  25
HETATM   25  C   UNK N   1      85.422  29.860  40.200  0.00  0.00     0.103 C 
BRANCH  25  26
HETATM   26  C   UNK N   1      84.575  31.092  40.507  0.00  0.00     0.005 C 
HETATM   27  C   UNK N   1      84.076  31.081  41.943  0.00  0.00     0.005 C 
ENDBRANCH  25  26
ENDBRANCH  22  25
ENDBRANCH   1  21
TORSDOF 11
ENDMDL
MODEL 8
REMARK VINA RESULT:      -6.6      4.043      6.787
REMARK  11 active torsions:
REMARK  status: ('A' for Active; 'I' for Inactive)
REMARK       I    between atoms: C_2  and  N_3 
REMARK    1  A    between atoms: C_2  and  C_4 
REMARK    2  A    between atoms: N_3  and  C_5 
REMARK    3  A    between atoms: C_4  and  C_6 
REMARK    4  A    between atoms: C_10  and  C_13 
REMARK    5  A    between atoms: C_12  and  O_14 
REMARK    6  A    between atoms: O_14  and  C_17 
REMARK    7  A    between atoms: C_17  and  C_18 
REMARK    8  A    between atoms: C_18  and  O_19 
REMARK    9  A    between atoms: C_18  and  C_20 
REMARK   10  A    between atoms: C_20  and  N_21 
REMARK   11  A    between atoms: N_21  and  C_22 
ROOT
HETATM    1  C   UNK N   1      95.884  14.212  41.060  0.00  0.00     0.035 A 
HETATM    2  C   UNK N   1      95.362  13.554  39.944  0.00  0.00     0.047 A 
HETATM    3  C   UNK N   1      95.013  14.633  42.074  0.00  0.00     0.032 A 
HETATM    4  C   UNK N   1      93.982  13.331  39.834  0.00  0.00     0.045 A 
HETATM    5  C   UNK N   1      93.639  14.410  41.969  0.00  0.00     0.040 A 
HETATM    6  C   UNK N   1      93.124  13.744  40.857  0.00  0.00     0.082 A 
ENDROOT
BRANCH   6   7
HETATM    7  O   UNK N   1      91.768  13.610  40.742  0.00  0.00    -0.348 OA
BRANCH   7   8
HETATM    8  C   UNK N   1      91.133  14.899  40.680  0.00  0.00     0.209 C 
BRANCH   8   9
HETATM    9  C   UNK N   1      89.895  14.923  41.584  0.00  0.00     0.170 C 
BRANCH   9  10
HETATM   10  O   UNK N   1      89.343  13.599  41.693  0.00  0.00    -0.392 OA
HETATM   11  H   UNK N   1      88.384  13.748  41.834  0.00  0.00     0.210 HD
ENDBRANCH   9  10
BRANCH   9  12
HETATM   12  C   UNK N   1      90.188  15.461  43.000  0.00  0.00     0.303 C 
BRANCH  12  13
HETATM   13  N   UNK N   1      90.153  16.942  42.966  0.00  0.00     0.089 N 
HETATM   14  H   UNK N   1      90.561  17.244  42.079  0.00  0.00     0.316 HD
BRANCH  13  15
HETATM   15  C   UNK N   1      90.930  17.537  44.065  0.00  0.00     0.212 C 
HETATM   16  C   UNK N   1      91.033  19.057  43.934  0.00  0.00     0.042 C 
HETATM   17  C   UNK N   1      92.335  16.927  44.048  0.00  0.00     0.042 C 
ENDBRANCH  13  15
ENDBRANCH  12  13
ENDBRANCH   9  12
ENDBRANCH   8   9
ENDBRANCH   7   8
ENDBRANCH   6   7
BRANCH   4  18
HETATM   18  C   UNK N   1      93.455  12.633  38.637  0.00  0.00     0.158 C 
HETATM   19  O   UNK N   1      93.461  11.407  38.582  0.00  0.00    -0.293 OA
HETATM   20  C   UNK N   1      92.963  13.480  37.494  0.00  0.00     0.097 C 
ENDBRANCH   4  18
BRANCH   1  21
HETATM   21  N   UNK N   1      97.258  14.467  41.242  0.00  0.00    -0.327 N 
HETATM   22  C   UNK N   1      98.208  13.591  41.745  0.00  0.00     0.222 C 
HETATM   23  O   UNK N   1      98.007  12.434  42.095  0.00  0.00    -0.273 OA
HETATM   24  H   UNK N   1      97.592  15.369  40.926  0.00  0.00     0.169 HD
BRANCH  22  25
HETATM   25  C   UNK N   1      99.584  14.237  41.806  0.00  0.00     0.103 C 
BRANCH  25  26
HETATM   26  C   UNK N   1      99.708  15.439  40.874  0.00  0.00     0.005 C 
HETATM   27  C   UNK N   1     100.358  16.622  41.572  0.00  0.00     0.005 C 
ENDBRANCH  25  26
ENDBRANCH  22  25
ENDBRANCH   1  21
TORSDOF 11
ENDMDL
MODEL 9
REMARK VINA RESULT:      -6.6      3.725      8.790
REMARK  11 active torsions:
REMARK  status: ('A' for Active; 'I' for Inactive)
REMARK       I    between atoms: C_2  and  N_3 
REMARK    1  A    between atoms: C_2  and  C_4 
REMARK    2  A    between atoms: N_3  and  C_5 
REMARK    3  A    between atoms: C_4  and  C_6 
REMARK    4  A    between atoms: C_10  and  C_13 
REMARK    5  A    between atoms: C_12  and  O_14 
REMARK    6  A    between atoms: O_14  and  C_17 
REMARK    7  A    between atoms: C_17  and  C_18 
REMARK    8  A    between atoms: C_18  and  O_19 
REMARK    9  A    between atoms: C_18  and  C_20 
REMARK   10  A    between atoms: C_20  and  N_21 
REMARK   11  A    between atoms: N_21  and  C_22 
ROOT
HETATM    1  C   UNK N   1      90.680  14.980  41.247  0.00  0.00     0.035 A 
HETATM    2  C   UNK N   1      91.808  14.622  40.505  0.00  0.00     0.047 A 
HETATM    3  C   UNK N   1      89.429  14.473  40.876  0.00  0.00     0.032 A 
HETATM    4  C   UNK N   1      91.684  13.776  39.392  0.00  0.00     0.045 A 
HETATM    5  C   UNK N   1      89.302  13.629  39.771  0.00  0.00     0.040 A 
HETATM    6  C   UNK N   1      90.432  13.267  39.039  0.00  0.00     0.082 A 
ENDROOT
BRANCH   6   7
HETATM    7  O   UNK N   1      90.269  12.505  37.915  0.00  0.00    -0.348 OA
BRANCH   7   8
HETATM    8  C   UNK N   1      88.906  12.062  37.793  0.00  0.00     0.209 C 
BRANCH   8   9
HETATM    9  C   UNK N   1      88.765  11.103  36.605  0.00  0.00     0.170 C 
BRANCH   9  10
HETATM   10  O   UNK N   1      88.255  11.811  35.463  0.00  0.00    -0.392 OA
HETATM   11  H   UNK N   1      88.703  11.391  34.698  0.00  0.00     0.210 HD
ENDBRANCH   9  10
BRANCH   9  12
HETATM   12  C   UNK N   1      90.092  10.418  36.218  0.00  0.00     0.303 C 
BRANCH  12  13
HETATM   13  N   UNK N   1      90.142  10.269  34.744  0.00  0.00     0.089 N 
HETATM   14  H   UNK N   1      89.185  10.148  34.410  0.00  0.00     0.316 HD
BRANCH  13  15
HETATM   15  C   UNK N   1      90.934   9.098  34.335  0.00  0.00     0.212 C 
HETATM   16  C   UNK N   1      91.332   9.165  32.860  0.00  0.00     0.042 C 
HETATM   17  C   UNK N   1      90.095   7.840  34.581  0.00  0.00     0.042 C 
ENDBRANCH  13  15
ENDBRANCH  12  13
ENDBRANCH   9  12
ENDBRANCH   8   9
ENDBRANCH   7   8
ENDBRANCH   6   7
BRANCH   4  18
HETATM   18  C   UNK N   1      92.896  13.416  38.620  0.00  0.00     0.158 C 
HETATM   19  O   UNK N   1      93.131  13.960  37.544  0.00  0.00    -0.293 OA
HETATM   20  C   UNK N   1      93.789  12.340  39.180  0.00  0.00     0.097 C 
ENDBRANCH   4  18
BRANCH   1  21
HETATM   21  N   UNK N   1      90.728  15.820  42.378  0.00  0.00    -0.327 N 
HETATM   22  C   UNK N   1      90.781  15.426  43.706  0.00  0.00     0.222 C 
HETATM   23  O   UNK N   1      90.819  14.271  44.115  0.00  0.00    -0.273 OA
HETATM   24  H   UNK N   1      90.777  16.815  42.196  0.00  0.00     0.169 HD
BRANCH  22  25
HETATM   25  C   UNK N   1      90.804  16.625  44.643  0.00  0.00     0.103 C 
BRANCH  25  26
HETATM   26  C   UNK N   1      91.750  17.723  44.165  0.00  0.00     0.005 C 
HETATM   27  C   UNK N   1      91.018  19.038  43.958  0.00  0.00     0.005 C 
ENDBRANCH  25  26
ENDBRANCH  22  25
ENDBRANCH   1  21
TORSDOF 11
ENDMDL
