MODEL 1
REMARK VINA RESULT:      -8.2      0.000      0.000
REMARK  11 active torsions:
REMARK  status: ('A' for Active; 'I' for Inactive)
REMARK    1  A    between atoms: C_2  and  N_3 
REMARK    2  A    between atoms: N_3  and  C_4 
REMARK    3  A    between atoms: C_5  and  O_7 
REMARK    4  A    between atoms: C_9  and  C_11 
REMARK    5  A    between atoms: C_11  and  O_12 
REMARK    6  A    between atoms: C_11  and  C_13 
REMARK    7  A    between atoms: C_13  and  N_14 
REMARK    8  A    between atoms: N_14  and  C_15 
REMARK    9  A    between atoms: C_15  and  C_16 
REMARK   10  A    between atoms: C_16  and  C_18 
REMARK   11  A    between atoms: C_23  and  O_24 
ROOT
HETATM    1  C   UNK N   1      89.043  13.866  44.565  0.00  0.00     0.179 C 
ENDROOT
BRANCH   1   2
HETATM    2  C   UNK N   1      90.130  14.904  44.402  0.00  0.00    -0.026 A 
HETATM    3  C   UNK N   1      89.806  16.197  43.949  0.00  0.00     0.042 A 
HETATM    4  C   UNK N   1      90.797  17.175  43.823  0.00  0.00     0.068 A 
HETATM    5  C   UNK N   1      92.117  16.858  44.159  0.00  0.00     0.092 A 
HETATM    6  C   UNK N   1      92.454  15.593  44.623  0.00  0.00     0.039 A 
HETATM    7  C   UNK N   1      91.463  14.618  44.740  0.00  0.00     0.012 A 
BRANCH   4   8
HETATM    8  N   UNK N   1      90.494  18.491  43.439  0.00  0.00    -0.332 N 
HETATM    9  H   UNK N   1      89.777  18.640  42.738  0.00  0.00     0.168 HD
BRANCH   8  10
HETATM   10  C   UNK N   1      91.093  19.620  43.917  0.00  0.00     0.353 C 
HETATM   11  O   UNK N   1      91.598  20.460  43.183  0.00  0.00    -0.283 OA
ENDBRANCH   8  10
ENDBRANCH   4   8
BRANCH   5  12
HETATM   12  O   UNK N   1      93.129  17.766  44.011  0.00  0.00    -0.358 OA
HETATM   13  H   UNK N   1      92.730  18.575  43.644  0.00  0.00     0.218 HD
ENDBRANCH   5  12
ENDBRANCH   1   2
BRANCH   1  14
HETATM   14  O   UNK N   1      88.116  14.280  45.574  0.00  0.00    -0.389 OA
HETATM   15  H   UNK N   1      88.675  14.722  46.246  0.00  0.00     0.210 HD
ENDBRANCH   1  14
BRANCH   1  16
HETATM   16  C   UNK N   1      88.273  13.622  43.245  0.00  0.00     0.306 C 
BRANCH  16  17
HETATM   17  N   UNK N   1      89.226  13.291  42.170  0.00  0.00     0.090 N 
HETATM   18  H   UNK N   1      90.184  13.435  42.500  0.00  0.00     0.316 HD
BRANCH  17  19
HETATM   19  C   UNK N   1      89.020  14.102  40.957  0.00  0.00     0.220 C 
HETATM   20  C   UNK N   1      88.751  13.132  39.801  0.00  0.00     0.043 C 
BRANCH  19  21
HETATM   21  C   UNK N   1      90.163  15.098  40.624  0.00  0.00     0.073 C 
BRANCH  21  22
HETATM   22  C   UNK N   1      91.458  14.492  40.129  0.00  0.00    -0.056 A 
HETATM   23  C   UNK N   1      91.739  14.421  38.759  0.00  0.00     0.010 A 
HETATM   24  C   UNK N   1      92.931  13.849  38.299  0.00  0.00     0.037 A 
HETATM   25  C   UNK N   1      93.863  13.346  39.205  0.00  0.00     0.068 A 
HETATM   26  C   UNK N   1      93.593  13.426  40.572  0.00  0.00     0.037 A 
HETATM   27  C   UNK N   1      92.404  13.996  41.033  0.00  0.00     0.010 A 
BRANCH  25  28
HETATM   28  O   UNK N   1      95.060  12.764  38.891  0.00  0.00    -0.356 OA
HETATM   29  C   UNK N   1      96.122  12.939  39.821  0.00  0.00     0.210 C 
ENDBRANCH  25  28
ENDBRANCH  21  22
ENDBRANCH  19  21
ENDBRANCH  17  19
ENDBRANCH  16  17
ENDBRANCH   1  16
TORSDOF 11
ENDMDL
MODEL 2
REMARK VINA RESULT:      -7.8     12.027     13.696
REMARK  11 active torsions:
REMARK  status: ('A' for Active; 'I' for Inactive)
REMARK    1  A    between atoms: C_2  and  N_3 
REMARK    2  A    between atoms: N_3  and  C_4 
REMARK    3  A    between atoms: C_5  and  O_7 
REMARK    4  A    between atoms: C_9  and  C_11 
REMARK    5  A    between atoms: C_11  and  O_12 
REMARK    6  A    between atoms: C_11  and  C_13 
REMARK    7  A    between atoms: C_13  and  N_14 
REMARK    8  A    between atoms: N_14  and  C_15 
REMARK    9  A    between atoms: C_15  and  C_16 
REMARK   10  A    between atoms: C_16  and  C_18 
REMARK   11  A    between atoms: C_23  and  O_24 
ROOT
HETATM    1  C   UNK N   1      94.054  25.942  48.944  0.00  0.00     0.179 C 
ENDROOT
BRANCH   1   2
HETATM    2  C   UNK N   1      93.664  26.287  47.524  0.00  0.00    -0.026 A 
HETATM    3  C   UNK N   1      92.355  26.035  47.074  0.00  0.00     0.042 A 
HETATM    4  C   UNK N   1      91.973  26.379  45.773  0.00  0.00     0.068 A 
HETATM    5  C   UNK N   1      92.905  26.983  44.924  0.00  0.00     0.092 A 
HETATM    6  C   UNK N   1      94.197  27.254  45.356  0.00  0.00     0.039 A 
HETATM    7  C   UNK N   1      94.575  26.903  46.651  0.00  0.00     0.012 A 
BRANCH   4   8
HETATM    8  N   UNK N   1      90.657  26.202  45.318  0.00  0.00    -0.332 N 
HETATM    9  H   UNK N   1      90.466  26.310  44.328  0.00  0.00     0.168 HD
BRANCH   8  10
HETATM   10  C   UNK N   1      89.576  25.905  46.095  0.00  0.00     0.353 C 
HETATM   11  O   UNK N   1      88.554  26.581  46.092  0.00  0.00    -0.283 OA
ENDBRANCH   8  10
ENDBRANCH   4   8
BRANCH   5  12
HETATM   12  O   UNK N   1      92.593  27.297  43.630  0.00  0.00    -0.358 OA
HETATM   13  H   UNK N   1      92.842  28.229  43.498  0.00  0.00     0.218 HD
ENDBRANCH   5  12
ENDBRANCH   1   2
BRANCH   1  14
HETATM   14  O   UNK N   1      93.990  24.526  49.140  0.00  0.00    -0.389 OA
HETATM   15  H   UNK N   1      94.490  24.375  49.968  0.00  0.00     0.210 HD
ENDBRANCH   1  14
BRANCH   1  16
HETATM   16  C   UNK N   1      95.482  26.432  49.287  0.00  0.00     0.306 C 
BRANCH  16  17
HETATM   17  N   UNK N   1      96.402  25.281  49.336  0.00  0.00     0.090 N 
HETATM   18  H   UNK N   1      96.510  24.966  50.303  0.00  0.00     0.316 HD
BRANCH  17  19
HETATM   19  C   UNK N   1      97.735  25.594  48.790  0.00  0.00     0.220 C 
HETATM   20  C   UNK N   1      98.652  25.906  49.978  0.00  0.00     0.043 C 
BRANCH  19  21
HETATM   21  C   UNK N   1      97.766  26.720  47.722  0.00  0.00     0.073 C 
BRANCH  21  22
HETATM   22  C   UNK N   1      98.794  26.573  46.622  0.00  0.00    -0.056 A 
HETATM   23  C   UNK N   1      98.797  25.445  45.791  0.00  0.00     0.010 A 
HETATM   24  C   UNK N   1      99.756  25.301  44.781  0.00  0.00     0.037 A 
HETATM   25  C   UNK N   1     100.721  26.288  44.583  0.00  0.00     0.068 A 
HETATM   26  C   UNK N   1     100.713  27.418  45.402  0.00  0.00     0.037 A 
HETATM   27  C   UNK N   1      99.758  27.564  46.410  0.00  0.00     0.010 A 
BRANCH  25  28
HETATM   28  O   UNK N   1     101.710  26.271  43.639  0.00  0.00    -0.356 OA
HETATM   29  C   UNK N   1     101.581  27.187  42.558  0.00  0.00     0.210 C 
ENDBRANCH  25  28
ENDBRANCH  21  22
ENDBRANCH  19  21
ENDBRANCH  17  19
ENDBRANCH  16  17
ENDBRANCH   1  16
TORSDOF 11
ENDMDL
MODEL 3
REMARK VINA RESULT:      -7.8      2.406      4.500
REMARK  11 active torsions:
REMARK  status: ('A' for Active; 'I' for Inactive)
REMARK    1  A    between atoms: C_2  and  N_3 
REMARK    2  A    between atoms: N_3  and  C_4 
REMARK    3  A    between atoms: C_5  and  O_7 
REMARK    4  A    between atoms: C_9  and  C_11 
REMARK    5  A    between atoms: C_11  and  O_12 
REMARK    6  A    between atoms: C_11  and  C_13 
REMARK    7  A    between atoms: C_13  and  N_14 
REMARK    8  A    between atoms: N_14  and  C_15 
REMARK    9  A    between atoms: C_15  and  C_16 
REMARK   10  A    between atoms: C_16  and  C_18 
REMARK   11  A    between atoms: C_23  and  O_24 
ROOT
HETATM    1  C   UNK N   1      94.358  14.710  42.892  0.00  0.00     0.179 C 
ENDROOT
BRANCH   1   2
HETATM    2  C   UNK N   1      92.914  15.155  42.928  0.00  0.00    -0.026 A 
HETATM    3  C   UNK N   1      92.543  16.280  43.687  0.00  0.00     0.042 A 
HETATM    4  C   UNK N   1      91.216  16.720  43.704  0.00  0.00     0.068 A 
HETATM    5  C   UNK N   1      90.258  16.033  42.952  0.00  0.00     0.092 A 
HETATM    6  C   UNK N   1      90.608  14.930  42.184  0.00  0.00     0.039 A 
HETATM    7  C   UNK N   1      91.932  14.491  42.176  0.00  0.00     0.012 A 
BRANCH   4   8
HETATM    8  N   UNK N   1      90.829  17.878  44.397  0.00  0.00    -0.332 N 
HETATM    9  H   UNK N   1      90.112  17.802  45.109  0.00  0.00     0.168 HD
BRANCH   8  10
HETATM   10  C   UNK N   1      91.323  19.134  44.192  0.00  0.00     0.353 C 
HETATM   11  O   UNK N   1      90.985  19.830  43.243  0.00  0.00    -0.283 OA
ENDBRANCH   8  10
ENDBRANCH   4   8
BRANCH   5  12
HETATM   12  O   UNK N   1      88.940  16.397  42.970  0.00  0.00    -0.358 OA
HETATM   13  H   UNK N   1      88.567  16.149  42.105  0.00  0.00     0.218 HD
ENDBRANCH   5  12
ENDBRANCH   1   2
BRANCH   1  14
HETATM   14  O   UNK N   1      95.004  15.037  44.127  0.00  0.00    -0.389 OA
HETATM   15  H   UNK N   1      95.161  16.001  44.068  0.00  0.00     0.210 HD
ENDBRANCH   1  14
BRANCH   1  16
HETATM   16  C   UNK N   1      94.489  13.188  42.644  0.00  0.00     0.306 C 
BRANCH  16  17
HETATM   17  N   UNK N   1      95.659  12.925  41.786  0.00  0.00     0.090 N 
HETATM   18  H   UNK N   1      96.128  13.807  41.560  0.00  0.00     0.316 HD
BRANCH  17  19
HETATM   19  C   UNK N   1      95.302  12.246  40.529  0.00  0.00     0.220 C 
HETATM   20  C   UNK N   1      96.528  11.442  40.081  0.00  0.00     0.043 C 
BRANCH  19  21
HETATM   21  C   UNK N   1      94.773  13.174  39.402  0.00  0.00     0.073 C 
BRANCH  21  22
HETATM   22  C   UNK N   1      93.280  13.152  39.162  0.00  0.00    -0.056 A 
HETATM   23  C   UNK N   1      92.490  12.105  39.655  0.00  0.00     0.010 A 
HETATM   24  C   UNK N   1      91.110  12.077  39.423  0.00  0.00     0.037 A 
HETATM   25  C   UNK N   1      90.498  13.100  38.701  0.00  0.00     0.068 A 
HETATM   26  C   UNK N   1      91.279  14.151  38.218  0.00  0.00     0.037 A 
HETATM   27  C   UNK N   1      92.657  14.181  38.448  0.00  0.00     0.010 A 
BRANCH  25  28
HETATM   28  O   UNK N   1      89.166  13.194  38.404  0.00  0.00    -0.356 OA
HETATM   29  C   UNK N   1      88.269  13.287  39.503  0.00  0.00     0.210 C 
ENDBRANCH  25  28
ENDBRANCH  21  22
ENDBRANCH  19  21
ENDBRANCH  17  19
ENDBRANCH  16  17
ENDBRANCH   1  16
TORSDOF 11
ENDMDL
MODEL 4
REMARK VINA RESULT:      -7.7     11.332     13.822
REMARK  11 active torsions:
REMARK  status: ('A' for Active; 'I' for Inactive)
REMARK    1  A    between atoms: C_2  and  N_3 
REMARK    2  A    between atoms: N_3  and  C_4 
REMARK    3  A    between atoms: C_5  and  O_7 
REMARK    4  A    between atoms: C_9  and  C_11 
REMARK    5  A    between atoms: C_11  and  O_12 
REMARK    6  A    between atoms: C_11  and  C_13 
REMARK    7  A    between atoms: C_13  and  N_14 
REMARK    8  A    between atoms: N_14  and  C_15 
REMARK    9  A    between atoms: C_15  and  C_16 
REMARK   10  A    between atoms: C_16  and  C_18 
REMARK   11  A    between atoms: C_23  and  O_24 
ROOT
HETATM    1  C   UNK N   1      79.213  23.460  41.332  0.00  0.00     0.179 C 
ENDROOT
BRANCH   1   2
HETATM    2  C   UNK N   1      80.126  22.727  42.289  0.00  0.00    -0.026 A 
HETATM    3  C   UNK N   1      80.650  21.469  41.936  0.00  0.00     0.042 A 
HETATM    4  C   UNK N   1      81.520  20.795  42.799  0.00  0.00     0.068 A 
HETATM    5  C   UNK N   1      81.870  21.387  44.016  0.00  0.00     0.092 A 
HETATM    6  C   UNK N   1      81.375  22.634  44.375  0.00  0.00     0.039 A 
HETATM    7  C   UNK N   1      80.502  23.299  43.514  0.00  0.00     0.012 A 
BRANCH   4   8
HETATM    8  N   UNK N   1      82.112  19.572  42.445  0.00  0.00    -0.332 N 
HETATM    9  H   UNK N   1      82.941  19.584  41.863  0.00  0.00     0.168 HD
BRANCH   8  10
HETATM   10  C   UNK N   1      81.663  18.335  42.805  0.00  0.00     0.353 C 
HETATM   11  O   UNK N   1      81.850  17.861  43.919  0.00  0.00    -0.283 OA
ENDBRANCH   8  10
ENDBRANCH   4   8
BRANCH   5  12
HETATM   12  O   UNK N   1      82.681  20.748  44.913  0.00  0.00    -0.358 OA
HETATM   13  H   UNK N   1      82.361  19.831  44.979  0.00  0.00     0.218 HD
ENDBRANCH   5  12
ENDBRANCH   1   2
BRANCH   1  14
HETATM   14  O   UNK N   1      79.576  24.843  41.270  0.00  0.00    -0.389 OA
HETATM   15  H   UNK N   1      78.772  25.287  40.930  0.00  0.00     0.210 HD
ENDBRANCH   1  14
BRANCH   1  16
HETATM   16  C   UNK N   1      79.268  22.861  39.905  0.00  0.00     0.306 C 
BRANCH  16  17
HETATM   17  N   UNK N   1      80.270  23.588  39.103  0.00  0.00     0.090 N 
HETATM   18  H   UNK N   1      79.853  24.439  38.717  0.00  0.00     0.316 HD
BRANCH  17  19
HETATM   19  C   UNK N   1      80.804  22.780  37.992  0.00  0.00     0.220 C 
HETATM   20  C   UNK N   1      81.755  21.744  38.598  0.00  0.00     0.043 C 
BRANCH  19  21
HETATM   21  C   UNK N   1      81.477  23.588  36.850  0.00  0.00     0.073 C 
BRANCH  21  22
HETATM   22  C   UNK N   1      82.129  24.894  37.247  0.00  0.00    -0.056 A 
HETATM   23  C   UNK N   1      83.377  24.907  37.884  0.00  0.00     0.010 A 
HETATM   24  C   UNK N   1      83.976  26.114  38.263  0.00  0.00     0.037 A 
HETATM   25  C   UNK N   1      83.339  27.326  38.004  0.00  0.00     0.068 A 
HETATM   26  C   UNK N   1      82.102  27.318  37.358  0.00  0.00     0.037 A 
HETATM   27  C   UNK N   1      81.501  26.115  36.979  0.00  0.00     0.010 A 
BRANCH  25  28
HETATM   28  O   UNK N   1      83.811  28.570  38.321  0.00  0.00    -0.356 OA
HETATM   29  C   UNK N   1      84.479  28.704  39.569  0.00  0.00     0.210 C 
ENDBRANCH  25  28
ENDBRANCH  21  22
ENDBRANCH  19  21
ENDBRANCH  17  19
ENDBRANCH  16  17
ENDBRANCH   1  16
TORSDOF 11
ENDMDL
MODEL 5
REMARK VINA RESULT:      -7.5      1.389      1.872
REMARK  11 active torsions:
REMARK  status: ('A' for Active; 'I' for Inactive)
REMARK    1  A    between atoms: C_2  and  N_3 
REMARK    2  A    between atoms: N_3  and  C_4 
REMARK    3  A    between atoms: C_5  and  O_7 
REMARK    4  A    between atoms: C_9  and  C_11 
REMARK    5  A    between atoms: C_11  and  O_12 
REMARK    6  A    between atoms: C_11  and  C_13 
REMARK    7  A    between atoms: C_13  and  N_14 
REMARK    8  A    between atoms: N_14  and  C_15 
REMARK    9  A    between atoms: C_15  and  C_16 
REMARK   10  A    between atoms: C_16  and  C_18 
REMARK   11  A    between atoms: C_23  and  O_24 
ROOT
HETATM    1  C   UNK N   1      89.104  14.080  42.401  0.00  0.00     0.179 C 
ENDROOT
BRANCH   1   2
HETATM    2  C   UNK N   1      90.240  14.965  42.861  0.00  0.00    -0.026 A 
HETATM    3  C   UNK N   1      89.972  16.258  43.348  0.00  0.00     0.042 A 
HETATM    4  C   UNK N   1      91.011  17.075  43.805  0.00  0.00     0.068 A 
HETATM    5  C   UNK N   1      92.323  16.591  43.778  0.00  0.00     0.092 A 
HETATM    6  C   UNK N   1      92.605  15.313  43.316  0.00  0.00     0.039 A 
HETATM    7  C   UNK N   1      91.567  14.504  42.855  0.00  0.00     0.012 A 
BRANCH   4   8
HETATM    8  N   UNK N   1      90.767  18.341  44.359  0.00  0.00    -0.332 N 
HETATM    9  H   UNK N   1      90.538  18.405  45.344  0.00  0.00     0.168 HD
BRANCH   8  10
HETATM   10  C   UNK N   1      90.794  19.527  43.683  0.00  0.00     0.353 C 
HETATM   11  O   UNK N   1      91.834  20.121  43.432  0.00  0.00    -0.283 OA
ENDBRANCH   8  10
ENDBRANCH   4   8
BRANCH   5  12
HETATM   12  O   UNK N   1      93.378  17.368  44.172  0.00  0.00    -0.358 OA
HETATM   13  H   UNK N   1      93.780  16.927  44.942  0.00  0.00     0.218 HD
ENDBRANCH   5  12
ENDBRANCH   1   2
BRANCH   1  14
HETATM   14  O   UNK N   1      87.906  14.411  43.110  0.00  0.00    -0.389 OA
HETATM   15  H   UNK N   1      87.490  13.545  43.297  0.00  0.00     0.210 HD
ENDBRANCH   1  14
BRANCH   1  16
HETATM   16  C   UNK N   1      88.842  14.215  40.882  0.00  0.00     0.306 C 
BRANCH  16  17
HETATM   17  N   UNK N   1      90.096  14.577  40.195  0.00  0.00     0.090 N 
HETATM   18  H   UNK N   1      90.042  15.543  39.862  0.00  0.00     0.316 HD
BRANCH  17  19
HETATM   19  C   UNK N   1      90.390  13.700  39.048  0.00  0.00     0.220 C 
HETATM   20  C   UNK N   1      90.523  12.272  39.588  0.00  0.00     0.043 C 
BRANCH  19  21
HETATM   21  C   UNK N   1      91.620  14.115  38.195  0.00  0.00     0.073 C 
BRANCH  21  22
HETATM   22  C   UNK N   1      92.958  13.567  38.639  0.00  0.00    -0.056 A 
HETATM   23  C   UNK N   1      93.491  12.413  38.050  0.00  0.00     0.010 A 
HETATM   24  C   UNK N   1      94.724  11.898  38.469  0.00  0.00     0.037 A 
HETATM   25  C   UNK N   1      95.445  12.535  39.477  0.00  0.00     0.068 A 
HETATM   26  C   UNK N   1      94.923  13.692  40.058  0.00  0.00     0.037 A 
HETATM   27  C   UNK N   1      93.693  14.207  39.643  0.00  0.00     0.010 A 
BRANCH  25  28
HETATM   28  O   UNK N   1      96.654  12.138  39.978  0.00  0.00    -0.356 OA
HETATM   29  C   UNK N   1      97.416  13.120  40.669  0.00  0.00     0.210 C 
ENDBRANCH  25  28
ENDBRANCH  21  22
ENDBRANCH  19  21
ENDBRANCH  17  19
ENDBRANCH  16  17
ENDBRANCH   1  16
TORSDOF 11
ENDMDL
MODEL 6
REMARK VINA RESULT:      -7.3     11.352     13.873
REMARK  11 active torsions:
REMARK  status: ('A' for Active; 'I' for Inactive)
REMARK    1  A    between atoms: C_2  and  N_3 
REMARK    2  A    between atoms: N_3  and  C_4 
REMARK    3  A    between atoms: C_5  and  O_7 
REMARK    4  A    between atoms: C_9  and  C_11 
REMARK    5  A    between atoms: C_11  and  O_12 
REMARK    6  A    between atoms: C_11  and  C_13 
REMARK    7  A    between atoms: C_13  and  N_14 
REMARK    8  A    between atoms: N_14  and  C_15 
REMARK    9  A    between atoms: C_15  and  C_16 
REMARK   10  A    between atoms: C_16  and  C_18 
REMARK   11  A    between atoms: C_23  and  O_24 
ROOT
HETATM    1  C   UNK N   1      81.141  22.901  37.861  0.00  0.00     0.179 C 
ENDROOT
BRANCH   1   2
HETATM    2  C   UNK N   1      81.937  24.185  37.924  0.00  0.00    -0.026 A 
HETATM    3  C   UNK N   1      83.343  24.140  37.953  0.00  0.00     0.042 A 
HETATM    4  C   UNK N   1      84.091  25.321  37.980  0.00  0.00     0.068 A 
HETATM    5  C   UNK N   1      83.426  26.552  37.973  0.00  0.00     0.092 A 
HETATM    6  C   UNK N   1      82.040  26.616  37.929  0.00  0.00     0.039 A 
HETATM    7  C   UNK N   1      81.298  25.435  37.909  0.00  0.00     0.012 A 
BRANCH   4   8
HETATM    8  N   UNK N   1      85.494  25.310  37.941  0.00  0.00    -0.332 N 
HETATM    9  H   UNK N   1      85.965  25.833  37.211  0.00  0.00     0.168 HD
BRANCH   8  10
HETATM   10  C   UNK N   1      86.312  24.635  38.800  0.00  0.00     0.353 C 
HETATM   11  O   UNK N   1      86.800  23.545  38.529  0.00  0.00    -0.283 OA
ENDBRANCH   8  10
ENDBRANCH   4   8
BRANCH   5  12
HETATM   12  O   UNK N   1      84.112  27.733  38.044  0.00  0.00    -0.358 OA
HETATM   13  H   UNK N   1      83.733  28.234  38.788  0.00  0.00     0.218 HD
ENDBRANCH   5  12
ENDBRANCH   1   2
BRANCH   1  14
HETATM   14  O   UNK N   1      81.237  22.328  36.553  0.00  0.00    -0.389 OA
HETATM   15  H   UNK N   1      81.698  23.011  36.025  0.00  0.00     0.210 HD
ENDBRANCH   1  14
BRANCH   1  16
HETATM   16  C   UNK N   1      81.630  21.864  38.901  0.00  0.00     0.306 C 
BRANCH  16  17
HETATM   17  N   UNK N   1      80.574  20.863  39.136  0.00  0.00     0.090 N 
HETATM   18  H   UNK N   1      79.711  21.154  38.670  0.00  0.00     0.316 HD
BRANCH  17  19
HETATM   19  C   UNK N   1      80.291  20.659  40.567  0.00  0.00     0.220 C 
HETATM   20  C   UNK N   1      79.306  19.490  40.675  0.00  0.00     0.043 C 
BRANCH  19  21
HETATM   21  C   UNK N   1      79.786  21.915  41.328  0.00  0.00     0.073 C 
BRANCH  21  22
HETATM   22  C   UNK N   1      80.497  22.247  42.621  0.00  0.00    -0.056 A 
HETATM   23  C   UNK N   1      81.438  21.365  43.167  0.00  0.00     0.010 A 
HETATM   24  C   UNK N   1      82.088  21.664  44.370  0.00  0.00     0.037 A 
HETATM   25  C   UNK N   1      81.812  22.855  45.040  0.00  0.00     0.068 A 
HETATM   26  C   UNK N   1      80.883  23.742  44.493  0.00  0.00     0.037 A 
HETATM   27  C   UNK N   1      80.233  23.445  43.293  0.00  0.00     0.010 A 
BRANCH  25  28
HETATM   28  O   UNK N   1      82.372  23.267  46.218  0.00  0.00    -0.356 OA
HETATM   29  C   UNK N   1      81.508  23.358  47.343  0.00  0.00     0.210 C 
ENDBRANCH  25  28
ENDBRANCH  21  22
ENDBRANCH  19  21
ENDBRANCH  17  19
ENDBRANCH  16  17
ENDBRANCH   1  16
TORSDOF 11
ENDMDL
MODEL 7
REMARK VINA RESULT:      -7.2      2.696      6.129
REMARK  11 active torsions:
REMARK  status: ('A' for Active; 'I' for Inactive)
REMARK    1  A    between atoms: C_2  and  N_3 
REMARK    2  A    between atoms: N_3  and  C_4 
REMARK    3  A    between atoms: C_5  and  O_7 
REMARK    4  A    between atoms: C_9  and  C_11 
REMARK    5  A    between atoms: C_11  and  O_12 
REMARK    6  A    between atoms: C_11  and  C_13 
REMARK    7  A    between atoms: C_13  and  N_14 
REMARK    8  A    between atoms: N_14  and  C_15 
REMARK    9  A    between atoms: C_15  and  C_16 
REMARK   10  A    between atoms: C_16  and  C_18 
REMARK   11  A    between atoms: C_23  and  O_24 
ROOT
HETATM    1  C   UNK N   1      88.397  13.901  40.210  0.00  0.00     0.179 C 
ENDROOT
BRANCH   1   2
HETATM    2  C   UNK N   1      89.759  13.800  39.560  0.00  0.00    -0.026 A 
HETATM    3  C   UNK N   1      90.018  12.779  38.626  0.00  0.00     0.042 A 
HETATM    4  C   UNK N   1      91.263  12.694  37.995  0.00  0.00     0.068 A 
HETATM    5  C   UNK N   1      92.249  13.639  38.296  0.00  0.00     0.092 A 
HETATM    6  C   UNK N   1      92.006  14.662  39.202  0.00  0.00     0.039 A 
HETATM    7  C   UNK N   1      90.765  14.739  39.835  0.00  0.00     0.012 A 
BRANCH   4   8
HETATM    8  N   UNK N   1      91.528  11.729  37.010  0.00  0.00    -0.332 N 
HETATM    9  H   UNK N   1      91.180  11.885  36.070  0.00  0.00     0.168 HD
BRANCH   8  10
HETATM   10  C   UNK N   1      92.214  10.564  37.198  0.00  0.00     0.353 C 
HETATM   11  O   UNK N   1      93.437  10.515  37.231  0.00  0.00    -0.283 OA
ENDBRANCH   8  10
ENDBRANCH   4   8
BRANCH   5  12
HETATM   12  O   UNK N   1      93.496  13.572  37.738  0.00  0.00    -0.358 OA
HETATM   13  H   UNK N   1      93.411  13.884  36.820  0.00  0.00     0.218 HD
ENDBRANCH   5  12
ENDBRANCH   1   2
BRANCH   1  14
HETATM   14  O   UNK N   1      87.388  13.430  39.312  0.00  0.00    -0.389 OA
HETATM   15  H   UNK N   1      86.928  14.244  39.019  0.00  0.00     0.210 HD
ENDBRANCH   1  14
BRANCH   1  16
HETATM   16  C   UNK N   1      88.322  13.084  41.523  0.00  0.00     0.306 C 
BRANCH  16  17
HETATM   17  N   UNK N   1      87.404  13.749  42.467  0.00  0.00     0.090 N 
HETATM   18  H   UNK N   1      86.924  14.521  41.996  0.00  0.00     0.316 HD
BRANCH  17  19
HETATM   19  C   UNK N   1      88.094  14.278  43.656  0.00  0.00     0.220 C 
HETATM   20  C   UNK N   1      87.041  14.447  44.757  0.00  0.00     0.043 C 
BRANCH  19  21
HETATM   21  C   UNK N   1      88.907  15.581  43.425  0.00  0.00     0.073 C 
BRANCH  21  22
HETATM   22  C   UNK N   1      90.403  15.482  43.629  0.00  0.00    -0.056 A 
HETATM   23  C   UNK N   1      91.179  16.633  43.811  0.00  0.00     0.010 A 
HETATM   24  C   UNK N   1      92.565  16.544  43.987  0.00  0.00     0.037 A 
HETATM   25  C   UNK N   1      93.193  15.300  43.993  0.00  0.00     0.068 A 
HETATM   26  C   UNK N   1      92.421  14.149  43.824  0.00  0.00     0.037 A 
HETATM   27  C   UNK N   1      91.039  14.235  43.648  0.00  0.00     0.010 A 
BRANCH  25  28
HETATM   28  O   UNK N   1      94.532  15.072  44.153  0.00  0.00    -0.356 OA
HETATM   29  C   UNK N   1      94.902  13.938  44.926  0.00  0.00     0.210 C 
ENDBRANCH  25  28
ENDBRANCH  21  22
ENDBRANCH  19  21
ENDBRANCH  17  19
ENDBRANCH  16  17
ENDBRANCH   1  16
TORSDOF 11
ENDMDL
MODEL 8
REMARK VINA RESULT:      -7.2     29.788     32.869
REMARK  11 active torsions:
REMARK  status: ('A' for Active; 'I' for Inactive)
REMARK    1  A    between atoms: C_2  and  N_3 
REMARK    2  A    between atoms: N_3  and  C_4 
REMARK    3  A    between atoms: C_5  and  O_7 
REMARK    4  A    between atoms: C_9  and  C_11 
REMARK    5  A    between atoms: C_11  and  O_12 
REMARK    6  A    between atoms: C_11  and  C_13 
REMARK    7  A    between atoms: C_13  and  N_14 
REMARK    8  A    between atoms: N_14  and  C_15 
REMARK    9  A    between atoms: C_15  and  C_16 
REMARK   10  A    between atoms: C_16  and  C_18 
REMARK   11  A    between atoms: C_23  and  O_24 
ROOT
HETATM    1  C   UNK N   1      73.442   5.263  15.572  0.00  0.00     0.179 C 
ENDROOT
BRANCH   1   2
HETATM    2  C   UNK N   1      74.560   6.266  15.746  0.00  0.00    -0.026 A 
HETATM    3  C   UNK N   1      75.525   6.076  16.752  0.00  0.00     0.042 A 
HETATM    4  C   UNK N   1      76.582   6.978  16.903  0.00  0.00     0.068 A 
HETATM    5  C   UNK N   1      76.675   8.073  16.038  0.00  0.00     0.092 A 
HETATM    6  C   UNK N   1      75.742   8.269  15.028  0.00  0.00     0.039 A 
HETATM    7  C   UNK N   1      74.685   7.369  14.886  0.00  0.00     0.012 A 
BRANCH   4   8
HETATM    8  N   UNK N   1      77.597   6.778  17.853  0.00  0.00    -0.332 N 
HETATM    9  H   UNK N   1      77.561   7.303  18.720  0.00  0.00     0.168 HD
BRANCH   8  10
HETATM   10  C   UNK N   1      78.663   5.938  17.717  0.00  0.00     0.353 C 
HETATM   11  O   UNK N   1      79.804   6.342  17.532  0.00  0.00    -0.283 OA
ENDBRANCH   8  10
ENDBRANCH   4   8
BRANCH   5  12
HETATM   12  O   UNK N   1      77.664   9.008  16.173  0.00  0.00    -0.358 OA
HETATM   13  H   UNK N   1      78.287   8.664  16.838  0.00  0.00     0.218 HD
ENDBRANCH   5  12
ENDBRANCH   1   2
BRANCH   1  14
HETATM   14  O   UNK N   1      72.385   5.542  16.496  0.00  0.00    -0.389 OA
HETATM   15  H   UNK N   1      71.568   5.404  15.975  0.00  0.00     0.210 HD
ENDBRANCH   1  14
BRANCH   1  16
HETATM   16  C   UNK N   1      72.868   5.279  14.134  0.00  0.00     0.306 C 
BRANCH  16  17
HETATM   17  N   UNK N   1      72.619   3.897  13.686  0.00  0.00     0.090 N 
HETATM   18  H   UNK N   1      72.716   3.254  14.476  0.00  0.00     0.316 HD
BRANCH  17  19
HETATM   19  C   UNK N   1      73.538   3.471  12.616  0.00  0.00     0.220 C 
HETATM   20  C   UNK N   1      72.813   2.404  11.790  0.00  0.00     0.043 C 
BRANCH  19  21
HETATM   21  C   UNK N   1      74.933   2.984  13.096  0.00  0.00     0.073 C 
BRANCH  21  22
HETATM   22  C   UNK N   1      76.024   4.029  13.152  0.00  0.00    -0.056 A 
HETATM   23  C   UNK N   1      77.024   3.970  14.131  0.00  0.00     0.010 A 
HETATM   24  C   UNK N   1      78.028   4.943  14.192  0.00  0.00     0.037 A 
HETATM   25  C   UNK N   1      78.050   5.987  13.268  0.00  0.00     0.068 A 
HETATM   26  C   UNK N   1      77.063   6.044  12.284  0.00  0.00     0.037 A 
HETATM   27  C   UNK N   1      76.060   5.074  12.222  0.00  0.00     0.010 A 
BRANCH  25  28
HETATM   28  O   UNK N   1      78.969   6.999  13.216  0.00  0.00    -0.356 OA
HETATM   29  C   UNK N   1      80.055   6.928  14.131  0.00  0.00     0.210 C 
ENDBRANCH  25  28
ENDBRANCH  21  22
ENDBRANCH  19  21
ENDBRANCH  17  19
ENDBRANCH  16  17
ENDBRANCH   1  16
TORSDOF 11
ENDMDL
MODEL 9
REMARK VINA RESULT:      -7.2     35.953     37.595
REMARK  11 active torsions:
REMARK  status: ('A' for Active; 'I' for Inactive)
REMARK    1  A    between atoms: C_2  and  N_3 
REMARK    2  A    between atoms: N_3  and  C_4 
REMARK    3  A    between atoms: C_5  and  O_7 
REMARK    4  A    between atoms: C_9  and  C_11 
REMARK    5  A    between atoms: C_11  and  O_12 
REMARK    6  A    between atoms: C_11  and  C_13 
REMARK    7  A    between atoms: C_13  and  N_14 
REMARK    8  A    between atoms: N_14  and  C_15 
REMARK    9  A    between atoms: C_15  and  C_16 
REMARK   10  A    between atoms: C_16  and  C_18 
REMARK   11  A    between atoms: C_23  and  O_24 
ROOT
HETATM    1  C   UNK N   1      84.179  42.181  15.987  0.00  0.00     0.179 C 
ENDROOT
BRANCH   1   2
HETATM    2  C   UNK N   1      83.309  40.962  15.779  0.00  0.00    -0.026 A 
HETATM    3  C   UNK N   1      82.644  40.773  14.553  0.00  0.00     0.042 A 
HETATM    4  C   UNK N   1      81.862  39.635  14.338  0.00  0.00     0.068 A 
HETATM    5  C   UNK N   1      81.750  38.680  15.353  0.00  0.00     0.092 A 
HETATM    6  C   UNK N   1      82.410  38.841  16.563  0.00  0.00     0.039 A 
HETATM    7  C   UNK N   1      83.185  39.982  16.777  0.00  0.00     0.012 A 
BRANCH   4   8
HETATM    8  N   UNK N   1      81.243  39.386  13.102  0.00  0.00    -0.332 N 
HETATM    9  H   UNK N   1      80.297  39.720  12.956  0.00  0.00     0.168 HD
BRANCH   8  10
HETATM   10  C   UNK N   1      81.795  38.708  12.055  0.00  0.00     0.353 C 
HETATM   11  O   UNK N   1      81.280  38.675  10.944  0.00  0.00    -0.283 OA
ENDBRANCH   8  10
ENDBRANCH   4   8
BRANCH   5  12
HETATM   12  O   UNK N   1      80.961  37.572  15.206  0.00  0.00    -0.358 OA
HETATM   13  H   UNK N   1      81.365  36.866  15.742  0.00  0.00     0.218 HD
ENDBRANCH   5  12
ENDBRANCH   1   2
BRANCH   1  14
HETATM   14  O   UNK N   1      84.431  42.373  17.383  0.00  0.00    -0.389 OA
HETATM   15  H   UNK N   1      83.941  43.191  17.605  0.00  0.00     0.210 HD
ENDBRANCH   1  14
BRANCH   1  16
HETATM   16  C   UNK N   1      85.532  42.059  15.245  0.00  0.00     0.306 C 
BRANCH  16  17
HETATM   17  N   UNK N   1      86.570  41.592  16.182  0.00  0.00     0.090 N 
HETATM   18  H   UNK N   1      87.279  42.320  16.305  0.00  0.00     0.316 HD
BRANCH  17  19
HETATM   19  C   UNK N   1      87.236  40.359  15.726  0.00  0.00     0.220 C 
HETATM   20  C   UNK N   1      88.725  40.495  16.061  0.00  0.00     0.043 C 
BRANCH  19  21
HETATM   21  C   UNK N   1      87.008  39.997  14.233  0.00  0.00     0.073 C 
BRANCH  21  22
HETATM   22  C   UNK N   1      86.212  38.739  13.964  0.00  0.00    -0.056 A 
HETATM   23  C   UNK N   1      85.681  37.987  15.020  0.00  0.00     0.010 A 
HETATM   24  C   UNK N   1      84.955  36.816  14.772  0.00  0.00     0.037 A 
HETATM   25  C   UNK N   1      84.742  36.385  13.464  0.00  0.00     0.068 A 
HETATM   26  C   UNK N   1      85.258  37.139  12.408  0.00  0.00     0.037 A 
HETATM   27  C   UNK N   1      85.984  38.307  12.653  0.00  0.00     0.010 A 
BRANCH  25  28
HETATM   28  O   UNK N   1      84.054  35.265  13.085  0.00  0.00    -0.356 OA
HETATM   29  C   UNK N   1      82.636  35.361  13.057  0.00  0.00     0.210 C 
ENDBRANCH  25  28
ENDBRANCH  21  22
ENDBRANCH  19  21
ENDBRANCH  17  19
ENDBRANCH  16  17
ENDBRANCH   1  16
TORSDOF 11
ENDMDL
