MODEL 1
REMARK VINA RESULT:      -7.1      0.000      0.000
REMARK  9 active torsions:
REMARK  status: ('A' for Active; 'I' for Inactive)
REMARK       I    between atoms: C_2  and  N_3 
REMARK    1  A    between atoms: C_2  and  C_4 
REMARK    2  A    between atoms: C_4  and  C_5 
REMARK    3  A    between atoms: C_10  and  O_11 
REMARK    4  A    between atoms: O_11  and  C_12 
REMARK    5  A    between atoms: C_12  and  C_13 
REMARK    6  A    between atoms: C_13  and  O_14 
REMARK    7  A    between atoms: C_13  and  C_15 
REMARK    8  A    between atoms: C_15  and  N_16 
REMARK    9  A    between atoms: N_16  and  C_17 
ROOT
HETATM    1  C   UNK N   1      90.934  16.620  44.068  0.00  0.00    -0.049 A 
HETATM    2  C   UNK N   1      89.908  16.423  43.135  0.00  0.00     0.010 A 
HETATM    3  C   UNK N   1      90.997  15.784  45.189  0.00  0.00     0.010 A 
HETATM    4  C   UNK N   1      88.966  15.403  43.313  0.00  0.00     0.037 A 
HETATM    5  C   UNK N   1      90.057  14.767  45.362  0.00  0.00     0.037 A 
HETATM    6  C   UNK N   1      89.039  14.568  44.428  0.00  0.00     0.068 A 
ENDROOT
BRANCH   6   7
HETATM    7  O   UNK N   1      88.190  13.538  44.720  0.00  0.00    -0.349 OA
BRANCH   7   8
HETATM    8  C   UNK N   1      86.820  13.685  44.333  0.00  0.00     0.209 C 
BRANCH   8   9
HETATM    9  C   UNK N   1      86.166  14.832  45.116  0.00  0.00     0.170 C 
BRANCH   9  10
HETATM   10  O   UNK N   1      86.357  14.640  46.526  0.00  0.00    -0.392 OA
HETATM   11  H   UNK N   1      86.481  13.674  46.630  0.00  0.00     0.210 HD
ENDBRANCH   9  10
BRANCH   9  12
HETATM   12  C   UNK N   1      84.657  14.973  44.830  0.00  0.00     0.303 C 
BRANCH  12  13
HETATM   13  N   UNK N   1      84.360  16.383  44.499  0.00  0.00     0.089 N 
HETATM   14  H   UNK N   1      84.051  16.428  43.526  0.00  0.00     0.316 HD
BRANCH  13  15
HETATM   15  C   UNK N   1      83.309  16.953  45.357  0.00  0.00     0.212 C 
HETATM   16  C   UNK N   1      83.860  18.027  46.297  0.00  0.00     0.042 C 
HETATM   17  C   UNK N   1      82.231  17.563  44.458  0.00  0.00     0.042 C 
ENDBRANCH  13  15
ENDBRANCH  12  13
ENDBRANCH   9  12
ENDBRANCH   8   9
ENDBRANCH   7   8
ENDBRANCH   6   7
BRANCH   1  18
HETATM   18  C   UNK N   1      91.952  17.720  43.875  0.00  0.00     0.141 C 
BRANCH  18  19
HETATM   19  C   UNK N   1      91.409  19.115  44.119  0.00  0.00     0.219 C 
HETATM   20  O   UNK N   1      91.196  19.919  43.217  0.00  0.00    -0.273 OA
HETATM   21  N   UNK N   1      91.224  19.473  45.423  0.00  0.00    -0.370 N 
HETATM   22  H   UNK N   1      90.876  20.402  45.616  0.00  0.00     0.159 HD
HETATM   23  H   UNK N   1      91.334  18.821  46.188  0.00  0.00     0.159 HD
ENDBRANCH  18  19
ENDBRANCH   1  18
TORSDOF 9
ENDMDL
MODEL 2
REMARK VINA RESULT:      -6.6     12.675     15.175
REMARK  9 active torsions:
REMARK  status: ('A' for Active; 'I' for Inactive)
REMARK       I    between atoms: C_2  and  N_3 
REMARK    1  A    between atoms: C_2  and  C_4 
REMARK    2  A    between atoms: C_4  and  C_5 
REMARK    3  A    between atoms: C_10  and  O_11 
REMARK    4  A    between atoms: O_11  and  C_12 
REMARK    5  A    between atoms: C_12  and  C_13 
REMARK    6  A    between atoms: C_13  and  O_14 
REMARK    7  A    between atoms: C_13  and  C_15 
REMARK    8  A    between atoms: C_15  and  N_16 
REMARK    9  A    between atoms: N_16  and  C_17 
ROOT
HETATM    1  C   UNK N   1      82.485  31.053  44.291  0.00  0.00    -0.049 A 
HETATM    2  C   UNK N   1      82.254  29.675  44.401  0.00  0.00     0.010 A 
HETATM    3  C   UNK N   1      83.268  31.524  43.231  0.00  0.00     0.010 A 
HETATM    4  C   UNK N   1      82.786  28.784  43.461  0.00  0.00     0.037 A 
HETATM    5  C   UNK N   1      83.796  30.632  42.296  0.00  0.00     0.037 A 
HETATM    6  C   UNK N   1      83.559  29.261  42.402  0.00  0.00     0.068 A 
ENDROOT
BRANCH   6   7
HETATM    7  O   UNK N   1      84.133  28.505  41.419  0.00  0.00    -0.349 OA
BRANCH   7   8
HETATM    8  C   UNK N   1      84.981  29.178  40.484  0.00  0.00     0.209 C 
BRANCH   8   9
HETATM    9  C   UNK N   1      84.594  28.799  39.046  0.00  0.00     0.170 C 
BRANCH   9  10
HETATM   10  O   UNK N   1      83.763  29.820  38.474  0.00  0.00    -0.392 OA
HETATM   11  H   UNK N   1      84.031  29.860  37.533  0.00  0.00     0.210 HD
ENDBRANCH   9  10
BRANCH   9  12
HETATM   12  C   UNK N   1      83.858  27.447  38.957  0.00  0.00     0.303 C 
BRANCH  12  13
HETATM   13  N   UNK N   1      84.855  26.355  38.961  0.00  0.00     0.089 N 
HETATM   14  H   UNK N   1      84.991  26.045  39.924  0.00  0.00     0.316 HD
BRANCH  13  15
HETATM   15  C   UNK N   1      84.432  25.204  38.147  0.00  0.00     0.212 C 
HETATM   16  C   UNK N   1      84.177  25.598  36.691  0.00  0.00     0.042 C 
HETATM   17  C   UNK N   1      85.533  24.142  38.205  0.00  0.00     0.042 C 
ENDBRANCH  13  15
ENDBRANCH  12  13
ENDBRANCH   9  12
ENDBRANCH   8   9
ENDBRANCH   7   8
ENDBRANCH   6   7
BRANCH   1  18
HETATM   18  C   UNK N   1      81.910  32.015  45.304  0.00  0.00     0.141 C 
BRANCH  18  19
HETATM   19  C   UNK N   1      82.911  32.501  46.335  0.00  0.00     0.219 C 
HETATM   20  O   UNK N   1      83.888  31.844  46.684  0.00  0.00    -0.273 OA
HETATM   21  N   UNK N   1      82.639  33.702  46.922  0.00  0.00    -0.370 N 
HETATM   22  H   UNK N   1      83.282  34.044  47.623  0.00  0.00     0.159 HD
HETATM   23  H   UNK N   1      81.879  34.296  46.622  0.00  0.00     0.159 HD
ENDBRANCH  18  19
ENDBRANCH   1  18
TORSDOF 9
ENDMDL
MODEL 3
REMARK VINA RESULT:      -6.5     36.831     38.278
REMARK  9 active torsions:
REMARK  status: ('A' for Active; 'I' for Inactive)
REMARK       I    between atoms: C_2  and  N_3 
REMARK    1  A    between atoms: C_2  and  C_4 
REMARK    2  A    between atoms: C_4  and  C_5 
REMARK    3  A    between atoms: C_10  and  O_11 
REMARK    4  A    between atoms: O_11  and  C_12 
REMARK    5  A    between atoms: C_12  and  C_13 
REMARK    6  A    between atoms: C_13  and  O_14 
REMARK    7  A    between atoms: C_13  and  C_15 
REMARK    8  A    between atoms: C_15  and  N_16 
REMARK    9  A    between atoms: N_16  and  C_17 
ROOT
HETATM    1  C   UNK N   1      86.254  36.905  13.212  0.00  0.00    -0.049 A 
HETATM    2  C   UNK N   1      85.050  36.227  12.974  0.00  0.00     0.010 A 
HETATM    3  C   UNK N   1      86.355  37.726  14.341  0.00  0.00     0.010 A 
HETATM    4  C   UNK N   1      83.969  36.361  13.854  0.00  0.00     0.037 A 
HETATM    5  C   UNK N   1      85.274  37.856  15.216  0.00  0.00     0.037 A 
HETATM    6  C   UNK N   1      84.079  37.175  14.981  0.00  0.00     0.068 A 
ENDROOT
BRANCH   6   7
HETATM    7  O   UNK N   1      83.106  37.390  15.917  0.00  0.00    -0.349 OA
BRANCH   7   8
HETATM    8  C   UNK N   1      82.750  38.748  16.193  0.00  0.00     0.209 C 
BRANCH   8   9
HETATM    9  C   UNK N   1      81.329  39.039  15.689  0.00  0.00     0.170 C 
BRANCH   9  10
HETATM   10  O   UNK N   1      80.661  37.811  15.362  0.00  0.00    -0.392 OA
HETATM   11  H   UNK N   1      79.866  37.800  15.933  0.00  0.00     0.210 HD
ENDBRANCH   9  10
BRANCH   9  12
HETATM   12  C   UNK N   1      81.305  39.965  14.456  0.00  0.00     0.303 C 
BRANCH  12  13
HETATM   13  N   UNK N   1      82.683  40.124  13.947  0.00  0.00     0.089 N 
HETATM   14  H   UNK N   1      83.271  39.409  14.378  0.00  0.00     0.316 HD
BRANCH  13  15
HETATM   15  C   UNK N   1      82.762  39.985  12.484  0.00  0.00     0.212 C 
HETATM   16  C   UNK N   1      84.198  39.755  12.009  0.00  0.00     0.042 C 
HETATM   17  C   UNK N   1      81.889  38.799  12.065  0.00  0.00     0.042 C 
ENDBRANCH  13  15
ENDBRANCH  12  13
ENDBRANCH   9  12
ENDBRANCH   8   9
ENDBRANCH   7   8
ENDBRANCH   6   7
BRANCH   1  18
HETATM   18  C   UNK N   1      87.421  36.760  12.264  0.00  0.00     0.141 C 
BRANCH  18  19
HETATM   19  C   UNK N   1      87.038  36.812  10.798  0.00  0.00     0.219 C 
HETATM   20  O   UNK N   1      86.660  37.838  10.239  0.00  0.00    -0.273 OA
HETATM   21  N   UNK N   1      87.070  35.627  10.122  0.00  0.00    -0.370 N 
HETATM   22  H   UNK N   1      86.807  35.630   9.146  0.00  0.00     0.159 HD
HETATM   23  H   UNK N   1      87.429  34.776  10.531  0.00  0.00     0.159 HD
ENDBRANCH  18  19
ENDBRANCH   1  18
TORSDOF 9
ENDMDL
MODEL 4
REMARK VINA RESULT:      -6.5     10.088     14.300
REMARK  9 active torsions:
REMARK  status: ('A' for Active; 'I' for Inactive)
REMARK       I    between atoms: C_2  and  N_3 
REMARK    1  A    between atoms: C_2  and  C_4 
REMARK    2  A    between atoms: C_4  and  C_5 
REMARK    3  A    between atoms: C_10  and  O_11 
REMARK    4  A    between atoms: O_11  and  C_12 
REMARK    5  A    between atoms: C_12  and  C_13 
REMARK    6  A    between atoms: C_13  and  O_14 
REMARK    7  A    between atoms: C_13  and  C_15 
REMARK    8  A    between atoms: C_15  and  N_16 
REMARK    9  A    between atoms: N_16  and  C_17 
ROOT
HETATM    1  C   UNK N   1      92.190  25.444  46.433  0.00  0.00    -0.049 A 
HETATM    2  C   UNK N   1      92.497  26.556  45.638  0.00  0.00     0.010 A 
HETATM    3  C   UNK N   1      93.179  24.922  47.276  0.00  0.00     0.010 A 
HETATM    4  C   UNK N   1      93.767  27.143  45.691  0.00  0.00     0.037 A 
HETATM    5  C   UNK N   1      94.443  25.512  47.326  0.00  0.00     0.037 A 
HETATM    6  C   UNK N   1      94.745  26.624  46.538  0.00  0.00     0.068 A 
ENDROOT
BRANCH   6   7
HETATM    7  O   UNK N   1      96.018  27.101  46.688  0.00  0.00    -0.349 OA
BRANCH   7   8
HETATM    8  C   UNK N   1      97.092  26.180  46.479  0.00  0.00     0.209 C 
BRANCH   8   9
HETATM    9  C   UNK N   1      98.314  26.589  47.316  0.00  0.00     0.170 C 
BRANCH   9  10
HETATM   10  O   UNK N   1      98.897  27.788  46.783  0.00  0.00    -0.392 OA
HETATM   11  H   UNK N   1      98.385  28.517  47.190  0.00  0.00     0.210 HD
ENDBRANCH   9  10
BRANCH   9  12
HETATM   12  C   UNK N   1      99.396  25.492  47.378  0.00  0.00     0.303 C 
BRANCH  12  13
HETATM   13  N   UNK N   1      99.453  24.798  46.075  0.00  0.00     0.089 N 
HETATM   14  H   UNK N   1      98.629  25.062  45.532  0.00  0.00     0.316 HD
BRANCH  13  15
HETATM   15  C   UNK N   1     100.660  25.144  45.306  0.00  0.00     0.212 C 
HETATM   16  C   UNK N   1     101.575  23.934  45.107  0.00  0.00     0.042 C 
HETATM   17  C   UNK N   1     100.222  25.685  43.942  0.00  0.00     0.042 C 
ENDBRANCH  13  15
ENDBRANCH  12  13
ENDBRANCH   9  12
ENDBRANCH   8   9
ENDBRANCH   7   8
ENDBRANCH   6   7
BRANCH   1  18
HETATM   18  C   UNK N   1      90.820  24.809  46.378  0.00  0.00     0.141 C 
BRANCH  18  19
HETATM   19  C   UNK N   1      89.680  25.773  46.649  0.00  0.00     0.219 C 
HETATM   20  O   UNK N   1      89.235  25.985  47.774  0.00  0.00    -0.273 OA
HETATM   21  N   UNK N   1      89.112  26.361  45.557  0.00  0.00    -0.370 N 
HETATM   22  H   UNK N   1      88.341  26.997  45.708  0.00  0.00     0.159 HD
HETATM   23  H   UNK N   1      89.487  26.255  44.624  0.00  0.00     0.159 HD
ENDBRANCH  18  19
ENDBRANCH   1  18
TORSDOF 9
ENDMDL
MODEL 5
REMARK VINA RESULT:      -6.4      5.219      6.795
REMARK  9 active torsions:
REMARK  status: ('A' for Active; 'I' for Inactive)
REMARK       I    between atoms: C_2  and  N_3 
REMARK    1  A    between atoms: C_2  and  C_4 
REMARK    2  A    between atoms: C_4  and  C_5 
REMARK    3  A    between atoms: C_10  and  O_11 
REMARK    4  A    between atoms: O_11  and  C_12 
REMARK    5  A    between atoms: C_12  and  C_13 
REMARK    6  A    between atoms: C_13  and  O_14 
REMARK    7  A    between atoms: C_13  and  C_15 
REMARK    8  A    between atoms: C_15  and  N_16 
REMARK    9  A    between atoms: N_16  and  C_17 
ROOT
HETATM    1  C   UNK N   1      94.870  13.553  39.944  0.00  0.00    -0.049 A 
HETATM    2  C   UNK N   1      94.052  13.040  38.928  0.00  0.00     0.010 A 
HETATM    3  C   UNK N   1      94.277  14.248  41.004  0.00  0.00     0.010 A 
HETATM    4  C   UNK N   1      92.663  13.211  38.976  0.00  0.00     0.037 A 
HETATM    5  C   UNK N   1      92.891  14.414  41.048  0.00  0.00     0.037 A 
HETATM    6  C   UNK N   1      92.077  13.898  40.038  0.00  0.00     0.068 A 
ENDROOT
BRANCH   6   7
HETATM    7  O   UNK N   1      90.741  14.132  40.208  0.00  0.00    -0.349 OA
BRANCH   7   8
HETATM    8  C   UNK N   1      90.367  15.187  41.098  0.00  0.00     0.209 C 
BRANCH   8   9
HETATM    9  C   UNK N   1      89.437  14.652  42.197  0.00  0.00     0.170 C 
BRANCH   9  10
HETATM   10  O   UNK N   1      88.147  14.345  41.645  0.00  0.00    -0.392 OA
HETATM   11  H   UNK N   1      88.137  14.789  40.773  0.00  0.00     0.210 HD
ENDBRANCH   9  10
BRANCH   9  12
HETATM   12  C   UNK N   1      89.257  15.639  43.368  0.00  0.00     0.303 C 
BRANCH  12  13
HETATM   13  N   UNK N   1      89.993  16.884  43.064  0.00  0.00     0.089 N 
HETATM   14  H   UNK N   1      89.315  17.637  42.931  0.00  0.00     0.316 HD
BRANCH  13  15
HETATM   15  C   UNK N   1      90.920  17.267  44.142  0.00  0.00     0.212 C 
HETATM   16  C   UNK N   1      92.260  16.538  44.028  0.00  0.00     0.042 C 
HETATM   17  C   UNK N   1      91.151  18.778  44.065  0.00  0.00     0.042 C 
ENDBRANCH  13  15
ENDBRANCH  12  13
ENDBRANCH   9  12
ENDBRANCH   8   9
ENDBRANCH   7   8
ENDBRANCH   6   7
BRANCH   1  18
HETATM   18  C   UNK N   1      96.369  13.368  39.894  0.00  0.00     0.141 C 
BRANCH  18  19
HETATM   19  C   UNK N   1      97.071  13.641  41.211  0.00  0.00     0.219 C 
HETATM   20  O   UNK N   1      96.988  12.895  42.183  0.00  0.00    -0.273 OA
HETATM   21  N   UNK N   1      97.764  14.813  41.295  0.00  0.00    -0.370 N 
HETATM   22  H   UNK N   1      98.230  15.027  42.166  0.00  0.00     0.159 HD
HETATM   23  H   UNK N   1      97.902  15.423  40.501  0.00  0.00     0.159 HD
ENDBRANCH  18  19
ENDBRANCH   1  18
TORSDOF 9
ENDMDL
MODEL 6
REMARK VINA RESULT:      -6.4      5.023      8.033
REMARK  9 active torsions:
REMARK  status: ('A' for Active; 'I' for Inactive)
REMARK       I    between atoms: C_2  and  N_3 
REMARK    1  A    between atoms: C_2  and  C_4 
REMARK    2  A    between atoms: C_4  and  C_5 
REMARK    3  A    between atoms: C_10  and  O_11 
REMARK    4  A    between atoms: O_11  and  C_12 
REMARK    5  A    between atoms: C_12  and  C_13 
REMARK    6  A    between atoms: C_13  and  O_14 
REMARK    7  A    between atoms: C_13  and  C_15 
REMARK    8  A    between atoms: C_15  and  N_16 
REMARK    9  A    between atoms: N_16  and  C_17 
ROOT
HETATM    1  C   UNK N   1      90.715  15.664  43.078  0.00  0.00    -0.049 A 
HETATM    2  C   UNK N   1      91.342  14.477  43.480  0.00  0.00     0.010 A 
HETATM    3  C   UNK N   1      90.421  15.848  41.722  0.00  0.00     0.010 A 
HETATM    4  C   UNK N   1      91.661  13.486  42.544  0.00  0.00     0.037 A 
HETATM    5  C   UNK N   1      90.739  14.856  40.793  0.00  0.00     0.037 A 
HETATM    6  C   UNK N   1      91.358  13.671  41.195  0.00  0.00     0.068 A 
ENDROOT
BRANCH   6   7
HETATM    7  O   UNK N   1      91.611  12.788  40.183  0.00  0.00    -0.349 OA
BRANCH   7   8
HETATM    8  C   UNK N   1      91.212  13.169  38.863  0.00  0.00     0.209 C 
BRANCH   8   9
HETATM    9  C   UNK N   1      92.413  13.121  37.908  0.00  0.00     0.170 C 
BRANCH   9  10
HETATM   10  O   UNK N   1      92.174  12.166  36.863  0.00  0.00    -0.392 OA
HETATM   11  H   UNK N   1      92.130  11.302  37.320  0.00  0.00     0.210 HD
ENDBRANCH   9  10
BRANCH   9  12
HETATM   12  C   UNK N   1      93.734  12.763  38.619  0.00  0.00     0.303 C 
BRANCH  12  13
HETATM   13  N   UNK N   1      94.296  13.985  39.233  0.00  0.00     0.089 N 
HETATM   14  H   UNK N   1      93.523  14.583  39.529  0.00  0.00     0.316 HD
BRANCH  13  15
HETATM   15  C   UNK N   1      95.143  13.690  40.400  0.00  0.00     0.212 C 
HETATM   16  C   UNK N   1      96.627  13.640  40.030  0.00  0.00     0.042 C 
HETATM   17  C   UNK N   1      94.914  14.781  41.449  0.00  0.00     0.042 C 
ENDBRANCH  13  15
ENDBRANCH  12  13
ENDBRANCH   9  12
ENDBRANCH   8   9
ENDBRANCH   7   8
ENDBRANCH   6   7
BRANCH   1  18
HETATM   18  C   UNK N   1      90.369  16.734  44.088  0.00  0.00     0.141 C 
BRANCH  18  19
HETATM   19  C   UNK N   1      91.472  17.749  44.317  0.00  0.00     0.219 C 
HETATM   20  O   UNK N   1      92.632  17.574  43.953  0.00  0.00    -0.273 OA
HETATM   21  N   UNK N   1      91.129  18.867  45.020  0.00  0.00    -0.370 N 
HETATM   22  H   UNK N   1      91.848  19.555  45.199  0.00  0.00     0.159 HD
HETATM   23  H   UNK N   1      90.176  19.073  45.285  0.00  0.00     0.159 HD
ENDBRANCH  18  19
ENDBRANCH   1  18
TORSDOF 9
ENDMDL
MODEL 7
REMARK VINA RESULT:      -6.3      4.029      6.129
REMARK  9 active torsions:
REMARK  status: ('A' for Active; 'I' for Inactive)
REMARK       I    between atoms: C_2  and  N_3 
REMARK    1  A    between atoms: C_2  and  C_4 
REMARK    2  A    between atoms: C_4  and  C_5 
REMARK    3  A    between atoms: C_10  and  O_11 
REMARK    4  A    between atoms: O_11  and  C_12 
REMARK    5  A    between atoms: C_12  and  C_13 
REMARK    6  A    between atoms: C_13  and  O_14 
REMARK    7  A    between atoms: C_13  and  C_15 
REMARK    8  A    between atoms: C_15  and  N_16 
REMARK    9  A    between atoms: N_16  and  C_17 
ROOT
HETATM    1  C   UNK N   1      90.567  16.261  43.537  0.00  0.00    -0.049 A 
HETATM    2  C   UNK N   1      89.302  15.794  43.917  0.00  0.00     0.010 A 
HETATM    3  C   UNK N   1      91.050  15.945  42.262  0.00  0.00     0.010 A 
HETATM    4  C   UNK N   1      88.528  15.032  43.034  0.00  0.00     0.037 A 
HETATM    5  C   UNK N   1      90.274  15.185  41.385  0.00  0.00     0.037 A 
HETATM    6  C   UNK N   1      89.011  14.726  41.762  0.00  0.00     0.068 A 
ENDROOT
BRANCH   6   7
HETATM    7  O   UNK N   1      88.360  13.997  40.806  0.00  0.00    -0.349 OA
BRANCH   7   8
HETATM    8  C   UNK N   1      88.285  12.581  40.998  0.00  0.00     0.209 C 
BRANCH   8   9
HETATM    9  C   UNK N   1      87.876  11.888  39.690  0.00  0.00     0.170 C 
BRANCH   9  10
HETATM   10  O   UNK N   1      87.336  10.587  39.970  0.00  0.00    -0.392 OA
HETATM   11  H   UNK N   1      86.411  10.754  40.244  0.00  0.00     0.210 HD
ENDBRANCH   9  10
BRANCH   9  12
HETATM   12  C   UNK N   1      89.044  11.741  38.694  0.00  0.00     0.303 C 
BRANCH  12  13
HETATM   13  N   UNK N   1      89.554  13.084  38.349  0.00  0.00     0.089 N 
HETATM   14  H   UNK N   1      89.275  13.735  39.086  0.00  0.00     0.316 HD
BRANCH  13  15
HETATM   15  C   UNK N   1      91.019  13.114  38.220  0.00  0.00     0.212 C 
HETATM   16  C   UNK N   1      91.565  14.543  38.242  0.00  0.00     0.042 C 
HETATM   17  C   UNK N   1      91.622  12.318  39.380  0.00  0.00     0.042 C 
ENDBRANCH  13  15
ENDBRANCH  12  13
ENDBRANCH   9  12
ENDBRANCH   8   9
ENDBRANCH   7   8
ENDBRANCH   6   7
BRANCH   1  18
HETATM   18  C   UNK N   1      91.403  17.085  44.489  0.00  0.00     0.141 C 
BRANCH  18  19
HETATM   19  C   UNK N   1      91.195  18.582  44.359  0.00  0.00     0.219 C 
HETATM   20  O   UNK N   1      91.113  19.157  43.277  0.00  0.00    -0.273 OA
HETATM   21  N   UNK N   1      91.166  19.292  45.524  0.00  0.00    -0.370 N 
HETATM   22  H   UNK N   1      91.042  20.294  45.466  0.00  0.00     0.159 HD
HETATM   23  H   UNK N   1      91.172  18.850  46.432  0.00  0.00     0.159 HD
ENDBRANCH  18  19
ENDBRANCH   1  18
TORSDOF 9
ENDMDL
MODEL 8
REMARK VINA RESULT:      -6.3      1.730      2.202
REMARK  9 active torsions:
REMARK  status: ('A' for Active; 'I' for Inactive)
REMARK       I    between atoms: C_2  and  N_3 
REMARK    1  A    between atoms: C_2  and  C_4 
REMARK    2  A    between atoms: C_4  and  C_5 
REMARK    3  A    between atoms: C_10  and  O_11 
REMARK    4  A    between atoms: O_11  and  C_12 
REMARK    5  A    between atoms: C_12  and  C_13 
REMARK    6  A    between atoms: C_13  and  O_14 
REMARK    7  A    between atoms: C_13  and  C_15 
REMARK    8  A    between atoms: C_15  and  N_16 
REMARK    9  A    between atoms: N_16  and  C_17 
ROOT
HETATM    1  C   UNK N   1      90.878  16.540  44.209  0.00  0.00    -0.049 A 
HETATM    2  C   UNK N   1      91.064  15.701  45.316  0.00  0.00     0.010 A 
HETATM    3  C   UNK N   1      89.766  16.335  43.385  0.00  0.00     0.010 A 
HETATM    4  C   UNK N   1      90.149  14.680  45.599  0.00  0.00     0.037 A 
HETATM    5  C   UNK N   1      88.856  15.316  43.672  0.00  0.00     0.037 A 
HETATM    6  C   UNK N   1      89.039  14.485  44.778  0.00  0.00     0.068 A 
ENDROOT
BRANCH   6   7
HETATM    7  O   UNK N   1      88.073  13.532  44.942  0.00  0.00    -0.349 OA
BRANCH   7   8
HETATM    8  C   UNK N   1      86.724  13.906  44.643  0.00  0.00     0.209 C 
BRANCH   8   9
HETATM    9  C   UNK N   1      85.757  12.790  45.065  0.00  0.00     0.170 C 
BRANCH   9  10
HETATM   10  O   UNK N   1      84.709  12.652  44.093  0.00  0.00    -0.392 OA
HETATM   11  H   UNK N   1      83.958  13.159  44.463  0.00  0.00     0.210 HD
ENDBRANCH   9  10
BRANCH   9  12
HETATM   12  C   UNK N   1      85.125  13.033  46.451  0.00  0.00     0.303 C 
BRANCH  12  13
HETATM   13  N   UNK N   1      85.691  14.270  47.028  0.00  0.00     0.089 N 
HETATM   14  H   UNK N   1      86.239  14.742  46.307  0.00  0.00     0.316 HD
BRANCH  13  15
HETATM   15  C   UNK N   1      84.652  15.191  47.514  0.00  0.00     0.212 C 
HETATM   16  C   UNK N   1      85.078  15.904  48.799  0.00  0.00     0.042 C 
HETATM   17  C   UNK N   1      84.377  16.227  46.421  0.00  0.00     0.042 C 
ENDBRANCH  13  15
ENDBRANCH  12  13
ENDBRANCH   9  12
ENDBRANCH   8   9
ENDBRANCH   7   8
ENDBRANCH   6   7
BRANCH   1  18
HETATM   18  C   UNK N   1      91.864  17.643  43.903  0.00  0.00     0.141 C 
BRANCH  18  19
HETATM   19  C   UNK N   1      91.331  19.040  44.162  0.00  0.00     0.219 C 
HETATM   20  O   UNK N   1      91.091  19.844  43.266  0.00  0.00    -0.273 OA
HETATM   21  N   UNK N   1      91.187  19.399  45.471  0.00  0.00    -0.370 N 
HETATM   22  H   UNK N   1      90.846  20.329  45.673  0.00  0.00     0.159 HD
HETATM   23  H   UNK N   1      91.319  18.748  46.233  0.00  0.00     0.159 HD
ENDBRANCH  18  19
ENDBRANCH   1  18
TORSDOF 9
ENDMDL
MODEL 9
REMARK VINA RESULT:      -6.3      5.360      8.217
REMARK  9 active torsions:
REMARK  status: ('A' for Active; 'I' for Inactive)
REMARK       I    between atoms: C_2  and  N_3 
REMARK    1  A    between atoms: C_2  and  C_4 
REMARK    2  A    between atoms: C_4  and  C_5 
REMARK    3  A    between atoms: C_10  and  O_11 
REMARK    4  A    between atoms: O_11  and  C_12 
REMARK    5  A    between atoms: C_12  and  C_13 
REMARK    6  A    between atoms: C_13  and  O_14 
REMARK    7  A    between atoms: C_13  and  C_15 
REMARK    8  A    between atoms: C_15  and  N_16 
REMARK    9  A    between atoms: N_16  and  C_17 
ROOT
HETATM    1  C   UNK N   1      92.120  15.665  43.883  0.00  0.00    -0.049 A 
HETATM    2  C   UNK N   1      93.116  15.009  44.618  0.00  0.00     0.010 A 
HETATM    3  C   UNK N   1      91.988  15.380  42.519  0.00  0.00     0.010 A 
HETATM    4  C   UNK N   1      93.961  14.077  44.003  0.00  0.00     0.037 A 
HETATM    5  C   UNK N   1      92.832  14.450  41.910  0.00  0.00     0.037 A 
HETATM    6  C   UNK N   1      93.820  13.792  42.645  0.00  0.00     0.068 A 
ENDROOT
BRANCH   6   7
HETATM    7  O   UNK N   1      94.573  12.907  41.925  0.00  0.00    -0.349 OA
BRANCH   7   8
HETATM    8  C   UNK N   1      95.933  13.264  41.661  0.00  0.00     0.209 C 
BRANCH   8   9
HETATM    9  C   UNK N   1      96.249  13.088  40.168  0.00  0.00     0.170 C 
BRANCH   9  10
HETATM   10  O   UNK N   1      96.635  14.347  39.594  0.00  0.00    -0.392 OA
HETATM   11  H   UNK N   1      97.008  14.857  40.342  0.00  0.00     0.210 HD
ENDBRANCH   9  10
BRANCH   9  12
HETATM   12  C   UNK N   1      95.064  12.516  39.365  0.00  0.00     0.303 C 
BRANCH  12  13
HETATM   13  N   UNK N   1      94.244  13.634  38.853  0.00  0.00     0.089 N 
HETATM   14  H   UNK N   1      94.798  14.155  38.171  0.00  0.00     0.316 HD
BRANCH  13  15
HETATM   15  C   UNK N   1      93.006  13.173  38.205  0.00  0.00     0.212 C 
HETATM   16  C   UNK N   1      92.473  11.888  38.841  0.00  0.00     0.042 C 
HETATM   17  C   UNK N   1      91.956  14.280  38.331  0.00  0.00     0.042 C 
ENDBRANCH  13  15
ENDBRANCH  12  13
ENDBRANCH   9  12
ENDBRANCH   8   9
ENDBRANCH   7   8
ENDBRANCH   6   7
BRANCH   1  18
HETATM   18  C   UNK N   1      91.206  16.669  44.547  0.00  0.00     0.141 C 
BRANCH  18  19
HETATM   19  C   UNK N   1      91.492  18.110  44.169  0.00  0.00     0.219 C 
HETATM   20  O   UNK N   1      90.610  18.944  43.987  0.00  0.00    -0.273 OA
HETATM   21  N   UNK N   1      92.803  18.435  43.970  0.00  0.00    -0.370 N 
HETATM   22  H   UNK N   1      93.021  19.385  43.704  0.00  0.00     0.159 HD
HETATM   23  H   UNK N   1      93.559  17.793  44.165  0.00  0.00     0.159 HD
ENDBRANCH  18  19
ENDBRANCH   1  18
TORSDOF 9
ENDMDL
