MODEL 1
REMARK VINA RESULT:      -7.9      0.000      0.000
REMARK  6 active torsions:
REMARK  status: ('A' for Active; 'I' for Inactive)
REMARK    1  A    between atoms: C_2  and  O_3 
REMARK    2  A    between atoms: C_2  and  C_4 
REMARK    3  A    between atoms: O_3  and  C_5 
REMARK    4  A    between atoms: C_6  and  O_10 
REMARK    5  A    between atoms: O_10  and  C_15 
REMARK    6  A    between atoms: C_17  and  N_20 
REMARK       I    between atoms: N_20  and  C_21 
ROOT
HETATM    1  O   UNK N   1      82.326  27.434  36.792  0.00  0.00    -0.259 OA
HETATM    2  C   UNK N   1      82.614  26.286  37.098  0.00  0.00     0.301 C 
ENDROOT
BRANCH   2   3
HETATM    3  O   UNK N   1      81.851  25.151  36.897  0.00  0.00    -0.275 OA
BRANCH   3   4
HETATM    4  C   UNK N   1      81.108  24.625  37.966  0.00  0.00     0.079 A 
HETATM    5  C   UNK N   1      81.356  23.365  38.503  0.00  0.00     0.039 A 
HETATM    6  C   UNK N   1      80.611  22.933  39.604  0.00  0.00     0.032 A 
HETATM    7  C   UNK N   1      79.641  23.763  40.184  0.00  0.00     0.034 A 
HETATM    8  C   UNK N   1      79.419  25.032  39.640  0.00  0.00     0.032 A 
HETATM    9  C   UNK N   1      80.157  25.467  38.536  0.00  0.00     0.039 A 
BRANCH   7  10
HETATM   10  N   UNK N   1      78.923  23.249  41.281  0.00  0.00    -0.328 N 
HETATM   11  C   UNK N   1      79.173  23.480  42.623  0.00  0.00     0.218 C 
HETATM   12  O   UNK N   1      80.090  24.138  43.098  0.00  0.00    -0.274 OA
HETATM   13  C   UNK N   1      78.176  22.780  43.512  0.00  0.00     0.117 C 
HETATM   14  H   UNK N   1      78.166  22.614  41.059  0.00  0.00     0.169 HD
ENDBRANCH   7  10
ENDBRANCH   3   4
ENDBRANCH   2   3
BRANCH   2  15
HETATM   15  C   UNK N   1      83.853  25.935  37.833  0.00  0.00     0.073 A 
HETATM   16  C   UNK N   1      84.371  26.678  38.901  0.00  0.00     0.095 A 
HETATM   17  C   UNK N   1      85.523  26.255  39.576  0.00  0.00     0.038 A 
HETATM   18  C   UNK N   1      86.181  25.096  39.163  0.00  0.00     0.003 A 
HETATM   19  C   UNK N   1      85.679  24.350  38.097  0.00  0.00     0.001 A 
HETATM   20  C   UNK N   1      84.518  24.763  37.439  0.00  0.00     0.020 A 
BRANCH  16  21
HETATM   21  O   UNK N   1      83.699  27.798  39.403  0.00  0.00    -0.278 OA
BRANCH  21  22
HETATM   22  C   UNK N   1      84.409  28.468  40.394  0.00  0.00     0.260 C 
HETATM   23  O   UNK N   1      84.486  28.159  41.576  0.00  0.00    -0.265 OA
HETATM   24  C   UNK N   1      85.090  29.656  39.783  0.00  0.00     0.126 C 
ENDBRANCH  21  22
ENDBRANCH  16  21
ENDBRANCH   2  15
TORSDOF 6
ENDMDL
MODEL 2
REMARK VINA RESULT:      -7.4     14.005     16.445
REMARK  6 active torsions:
REMARK  status: ('A' for Active; 'I' for Inactive)
REMARK    1  A    between atoms: C_2  and  O_3 
REMARK    2  A    between atoms: C_2  and  C_4 
REMARK    3  A    between atoms: O_3  and  C_5 
REMARK    4  A    between atoms: C_6  and  O_10 
REMARK    5  A    between atoms: O_10  and  C_15 
REMARK    6  A    between atoms: C_17  and  N_20 
REMARK       I    between atoms: N_20  and  C_21 
ROOT
HETATM    1  O   UNK N   1      90.765  15.345  39.851  0.00  0.00    -0.259 OA
HETATM    2  C   UNK N   1      90.641  14.250  40.380  0.00  0.00     0.301 C 
ENDROOT
BRANCH   2   3
HETATM    3  O   UNK N   1      91.593  13.252  40.469  0.00  0.00    -0.275 OA
BRANCH   3   4
HETATM    4  C   UNK N   1      92.947  13.601  40.599  0.00  0.00     0.079 A 
HETATM    5  C   UNK N   1      93.854  13.487  39.551  0.00  0.00     0.039 A 
HETATM    6  C   UNK N   1      95.174  13.908  39.739  0.00  0.00     0.032 A 
HETATM    7  C   UNK N   1      95.580  14.468  40.959  0.00  0.00     0.034 A 
HETATM    8  C   UNK N   1      94.648  14.590  41.995  0.00  0.00     0.032 A 
HETATM    9  C   UNK N   1      93.329  14.165  41.813  0.00  0.00     0.039 A 
BRANCH   7  10
HETATM   10  N   UNK N   1      96.929  14.855  41.076  0.00  0.00    -0.328 N 
HETATM   11  C   UNK N   1      98.026  14.023  41.209  0.00  0.00     0.218 C 
HETATM   12  O   UNK N   1      98.017  12.801  41.293  0.00  0.00    -0.274 OA
HETATM   13  C   UNK N   1      99.318  14.798  41.281  0.00  0.00     0.117 C 
HETATM   14  H   UNK N   1      97.104  15.852  41.101  0.00  0.00     0.169 HD
ENDBRANCH   7  10
ENDBRANCH   3   4
ENDBRANCH   2   3
BRANCH   2  15
HETATM   15  C   UNK N   1      89.364  13.781  40.970  0.00  0.00     0.073 A 
HETATM   16  C   UNK N   1      89.127  13.671  42.346  0.00  0.00     0.095 A 
HETATM   17  C   UNK N   1      87.877  13.264  42.827  0.00  0.00     0.038 A 
HETATM   18  C   UNK N   1      86.862  12.936  41.928  0.00  0.00     0.003 A 
HETATM   19  C   UNK N   1      87.086  13.037  40.555  0.00  0.00     0.001 A 
HETATM   20  C   UNK N   1      88.328  13.463  40.078  0.00  0.00     0.020 A 
BRANCH  16  21
HETATM   21  O   UNK N   1      90.087  14.068  43.284  0.00  0.00    -0.278 OA
BRANCH  21  22
HETATM   22  C   UNK N   1      89.692  15.165  44.044  0.00  0.00     0.260 C 
HETATM   23  O   UNK N   1      89.058  15.142  45.090  0.00  0.00    -0.265 OA
HETATM   24  C   UNK N   1      90.177  16.417  43.374  0.00  0.00     0.126 C 
ENDBRANCH  21  22
ENDBRANCH  16  21
ENDBRANCH   2  15
TORSDOF 6
ENDMDL
MODEL 3
REMARK VINA RESULT:      -7.4     12.995     14.770
REMARK  6 active torsions:
REMARK  status: ('A' for Active; 'I' for Inactive)
REMARK    1  A    between atoms: C_2  and  O_3 
REMARK    2  A    between atoms: C_2  and  C_4 
REMARK    3  A    between atoms: O_3  and  C_5 
REMARK    4  A    between atoms: C_6  and  O_10 
REMARK    5  A    between atoms: O_10  and  C_15 
REMARK    6  A    between atoms: C_17  and  N_20 
REMARK       I    between atoms: N_20  and  C_21 
ROOT
HETATM    1  O   UNK N   1      89.301  13.257  43.836  0.00  0.00    -0.259 OA
HETATM    2  C   UNK N   1      89.905  14.063  43.143  0.00  0.00     0.301 C 
ENDROOT
BRANCH   2   3
HETATM    3  O   UNK N   1      89.392  14.834  42.117  0.00  0.00    -0.275 OA
BRANCH   3   4
HETATM    4  C   UNK N   1      89.244  14.268  40.840  0.00  0.00     0.079 A 
HETATM    5  C   UNK N   1      90.295  14.180  39.932  0.00  0.00     0.039 A 
HETATM    6  C   UNK N   1      90.084  13.552  38.701  0.00  0.00     0.032 A 
HETATM    7  C   UNK N   1      88.838  12.991  38.387  0.00  0.00     0.034 A 
HETATM    8  C   UNK N   1      87.799  13.076  39.320  0.00  0.00     0.032 A 
HETATM    9  C   UNK N   1      88.003  13.707  40.550  0.00  0.00     0.039 A 
BRANCH   7  10
HETATM   10  N   UNK N   1      88.701  12.389  37.121  0.00  0.00    -0.328 N 
HETATM   11  C   UNK N   1      88.819  11.043  36.821  0.00  0.00     0.218 C 
HETATM   12  O   UNK N   1      89.107  10.139  37.596  0.00  0.00    -0.274 OA
HETATM   13  C   UNK N   1      88.582  10.767  35.358  0.00  0.00     0.117 C 
HETATM   14  H   UNK N   1      88.534  13.019  36.346  0.00  0.00     0.169 HD
ENDBRANCH   7  10
ENDBRANCH   3   4
ENDBRANCH   2   3
BRANCH   2  15
HETATM   15  C   UNK N   1      91.366  14.288  43.258  0.00  0.00     0.073 A 
HETATM   16  C   UNK N   1      91.963  15.553  43.339  0.00  0.00     0.095 A 
HETATM   17  C   UNK N   1      93.348  15.682  43.494  0.00  0.00     0.038 A 
HETATM   18  C   UNK N   1      94.150  14.542  43.541  0.00  0.00     0.003 A 
HETATM   19  C   UNK N   1      93.569  13.277  43.457  0.00  0.00     0.001 A 
HETATM   20  C   UNK N   1      92.184  13.149  43.323  0.00  0.00     0.020 A 
BRANCH  16  21
HETATM   21  O   UNK N   1      91.192  16.720  43.381  0.00  0.00    -0.278 OA
BRANCH  21  22
HETATM   22  C   UNK N   1      91.014  17.216  44.669  0.00  0.00     0.260 C 
HETATM   23  O   UNK N   1      90.709  16.575  45.665  0.00  0.00    -0.265 OA
HETATM   24  C   UNK N   1      91.262  18.695  44.656  0.00  0.00     0.126 C 
ENDBRANCH  21  22
ENDBRANCH  16  21
ENDBRANCH   2  15
TORSDOF 6
ENDMDL
MODEL 4
REMARK VINA RESULT:      -7.3     26.851     29.203
REMARK  6 active torsions:
REMARK  status: ('A' for Active; 'I' for Inactive)
REMARK    1  A    between atoms: C_2  and  O_3 
REMARK    2  A    between atoms: C_2  and  C_4 
REMARK    3  A    between atoms: O_3  and  C_5 
REMARK    4  A    between atoms: C_6  and  O_10 
REMARK    5  A    between atoms: O_10  and  C_15 
REMARK    6  A    between atoms: C_17  and  N_20 
REMARK       I    between atoms: N_20  and  C_21 
ROOT
HETATM    1  O   UNK N   1      83.279  37.450  17.029  0.00  0.00    -0.259 OA
HETATM    2  C   UNK N   1      82.861  37.914  15.978  0.00  0.00     0.301 C 
ENDROOT
BRANCH   2   3
HETATM    3  O   UNK N   1      82.758  37.267  14.761  0.00  0.00    -0.275 OA
BRANCH   3   4
HETATM    4  C   UNK N   1      83.853  37.276  13.883  0.00  0.00     0.079 A 
HETATM    5  C   UNK N   1      83.961  38.175  12.827  0.00  0.00     0.039 A 
HETATM    6  C   UNK N   1      85.109  38.159  12.029  0.00  0.00     0.032 A 
HETATM    7  C   UNK N   1      86.158  37.268  12.300  0.00  0.00     0.034 A 
HETATM    8  C   UNK N   1      86.037  36.384  13.377  0.00  0.00     0.032 A 
HETATM    9  C   UNK N   1      84.889  36.392  14.174  0.00  0.00     0.039 A 
BRANCH   7  10
HETATM   10  N   UNK N   1      87.274  37.304  11.443  0.00  0.00    -0.328 N 
HETATM   11  C   UNK N   1      87.629  36.358  10.497  0.00  0.00     0.218 C 
HETATM   12  O   UNK N   1      87.059  35.299  10.266  0.00  0.00    -0.274 OA
HETATM   13  C   UNK N   1      88.877  36.748   9.747  0.00  0.00     0.117 C 
HETATM   14  H   UNK N   1      87.901  38.090  11.562  0.00  0.00     0.169 HD
ENDBRANCH   7  10
ENDBRANCH   3   4
ENDBRANCH   2   3
BRANCH   2  15
HETATM   15  C   UNK N   1      82.453  39.332  15.830  0.00  0.00     0.073 A 
HETATM   16  C   UNK N   1      83.238  40.422  16.227  0.00  0.00     0.095 A 
HETATM   17  C   UNK N   1      82.802  41.735  16.011  0.00  0.00     0.038 A 
HETATM   18  C   UNK N   1      81.560  41.964  15.419  0.00  0.00     0.003 A 
HETATM   19  C   UNK N   1      80.766  40.888  15.023  0.00  0.00     0.001 A 
HETATM   20  C   UNK N   1      81.212  39.578  15.221  0.00  0.00     0.020 A 
BRANCH  16  21
HETATM   21  O   UNK N   1      84.524  40.242  16.748  0.00  0.00    -0.278 OA
BRANCH  21  22
HETATM   22  C   UNK N   1      85.496  40.068  15.766  0.00  0.00     0.260 C 
HETATM   23  O   UNK N   1      85.575  40.666  14.702  0.00  0.00    -0.265 OA
HETATM   24  C   UNK N   1      86.460  39.014  16.222  0.00  0.00     0.126 C 
ENDBRANCH  21  22
ENDBRANCH  16  21
ENDBRANCH   2  15
TORSDOF 6
ENDMDL
MODEL 5
REMARK VINA RESULT:      -7.3      8.495     10.915
REMARK  6 active torsions:
REMARK  status: ('A' for Active; 'I' for Inactive)
REMARK    1  A    between atoms: C_2  and  O_3 
REMARK    2  A    between atoms: C_2  and  C_4 
REMARK    3  A    between atoms: O_3  and  C_5 
REMARK    4  A    between atoms: C_6  and  O_10 
REMARK    5  A    between atoms: O_10  and  C_15 
REMARK    6  A    between atoms: C_17  and  N_20 
REMARK       I    between atoms: N_20  and  C_21 
ROOT
HETATM    1  O   UNK N   1      81.011  18.093  46.553  0.00  0.00    -0.259 OA
HETATM    2  C   UNK N   1      81.921  18.538  45.869  0.00  0.00     0.301 C 
ENDROOT
BRANCH   2   3
HETATM    3  O   UNK N   1      83.273  18.507  46.153  0.00  0.00    -0.275 OA
BRANCH   3   4
HETATM    4  C   UNK N   1      83.941  17.272  46.181  0.00  0.00     0.079 A 
HETATM    5  C   UNK N   1      84.464  16.677  45.038  0.00  0.00     0.039 A 
HETATM    6  C   UNK N   1      85.166  15.473  45.153  0.00  0.00     0.032 A 
HETATM    7  C   UNK N   1      85.370  14.880  46.408  0.00  0.00     0.034 A 
HETATM    8  C   UNK N   1      84.851  15.504  47.547  0.00  0.00     0.032 A 
HETATM    9  C   UNK N   1      84.143  16.704  47.436  0.00  0.00     0.039 A 
BRANCH   7  10
HETATM   10  N   UNK N   1      86.075  13.662  46.439  0.00  0.00    -0.328 N 
HETATM   11  C   UNK N   1      87.433  13.479  46.247  0.00  0.00     0.218 C 
HETATM   12  O   UNK N   1      88.260  14.340  45.972  0.00  0.00    -0.274 OA
HETATM   13  C   UNK N   1      87.833  12.031  46.379  0.00  0.00     0.117 C 
HETATM   14  H   UNK N   1      85.516  12.829  46.582  0.00  0.00     0.169 HD
ENDBRANCH   7  10
ENDBRANCH   3   4
ENDBRANCH   2   3
BRANCH   2  15
HETATM   15  C   UNK N   1      81.690  19.280  44.606  0.00  0.00     0.073 A 
HETATM   16  C   UNK N   1      81.563  20.672  44.523  0.00  0.00     0.095 A 
HETATM   17  C   UNK N   1      81.394  21.304  43.285  0.00  0.00     0.038 A 
HETATM   18  C   UNK N   1      81.321  20.538  42.121  0.00  0.00     0.003 A 
HETATM   19  C   UNK N   1      81.441  19.151  42.190  0.00  0.00     0.001 A 
HETATM   20  C   UNK N   1      81.630  18.524  43.424  0.00  0.00     0.020 A 
BRANCH  16  21
HETATM   21  O   UNK N   1      81.714  21.485  45.652  0.00  0.00    -0.278 OA
BRANCH  21  22
HETATM   22  C   UNK N   1      82.888  22.231  45.641  0.00  0.00     0.260 C 
HETATM   23  O   UNK N   1      84.031  21.798  45.682  0.00  0.00    -0.265 OA
HETATM   24  C   UNK N   1      82.536  23.687  45.564  0.00  0.00     0.126 C 
ENDBRANCH  21  22
ENDBRANCH  16  21
ENDBRANCH   2  15
TORSDOF 6
ENDMDL
MODEL 6
REMARK VINA RESULT:      -7.2      3.077      4.963
REMARK  6 active torsions:
REMARK  status: ('A' for Active; 'I' for Inactive)
REMARK    1  A    between atoms: C_2  and  O_3 
REMARK    2  A    between atoms: C_2  and  C_4 
REMARK    3  A    between atoms: O_3  and  C_5 
REMARK    4  A    between atoms: C_6  and  O_10 
REMARK    5  A    between atoms: O_10  and  C_15 
REMARK    6  A    between atoms: C_17  and  N_20 
REMARK       I    between atoms: N_20  and  C_21 
ROOT
HETATM    1  O   UNK N   1      79.905  25.207  40.149  0.00  0.00    -0.259 OA
HETATM    2  C   UNK N   1      79.770  24.070  39.721  0.00  0.00     0.301 C 
ENDROOT
BRANCH   2   3
HETATM    3  O   UNK N   1      79.255  22.979  40.395  0.00  0.00    -0.275 OA
BRANCH   3   4
HETATM    4  C   UNK N   1      80.008  22.386  41.421  0.00  0.00     0.079 A 
HETATM    5  C   UNK N   1      80.730  21.211  41.239  0.00  0.00     0.039 A 
HETATM    6  C   UNK N   1      81.502  20.711  42.292  0.00  0.00     0.032 A 
HETATM    7  C   UNK N   1      81.575  21.396  43.513  0.00  0.00     0.034 A 
HETATM    8  C   UNK N   1      80.856  22.585  43.671  0.00  0.00     0.032 A 
HETATM    9  C   UNK N   1      80.078  23.085  42.623  0.00  0.00     0.039 A 
BRANCH   7  10
HETATM   10  N   UNK N   1      82.363  20.821  44.530  0.00  0.00    -0.328 N 
HETATM   11  C   UNK N   1      81.969  19.865  45.449  0.00  0.00     0.218 C 
HETATM   12  O   UNK N   1      80.851  19.379  45.572  0.00  0.00    -0.274 OA
HETATM   13  C   UNK N   1      83.094  19.470  46.372  0.00  0.00     0.117 C 
HETATM   14  H   UNK N   1      83.307  21.177  44.615  0.00  0.00     0.169 HD
ENDBRANCH   7  10
ENDBRANCH   3   4
ENDBRANCH   2   3
BRANCH   2  15
HETATM   15  C   UNK N   1      80.230  23.657  38.373  0.00  0.00     0.073 A 
HETATM   16  C   UNK N   1      81.325  24.223  37.708  0.00  0.00     0.095 A 
HETATM   17  C   UNK N   1      81.727  23.746  36.455  0.00  0.00     0.038 A 
HETATM   18  C   UNK N   1      81.014  22.713  35.846  0.00  0.00     0.003 A 
HETATM   19  C   UNK N   1      79.920  22.143  36.495  0.00  0.00     0.001 A 
HETATM   20  C   UNK N   1      79.533  22.607  37.755  0.00  0.00     0.020 A 
BRANCH  16  21
HETATM   21  O   UNK N   1      82.119  25.203  38.316  0.00  0.00    -0.278 OA
BRANCH  21  22
HETATM   22  C   UNK N   1      82.337  26.314  37.506  0.00  0.00     0.260 C 
HETATM   23  O   UNK N   1      83.380  26.616  36.943  0.00  0.00    -0.265 OA
HETATM   24  C   UNK N   1      81.067  27.107  37.421  0.00  0.00     0.126 C 
ENDBRANCH  21  22
ENDBRANCH  16  21
ENDBRANCH   2  15
TORSDOF 6
ENDMDL
MODEL 7
REMARK VINA RESULT:      -7.1     29.507     31.369
REMARK  6 active torsions:
REMARK  status: ('A' for Active; 'I' for Inactive)
REMARK    1  A    between atoms: C_2  and  O_3 
REMARK    2  A    between atoms: C_2  and  C_4 
REMARK    3  A    between atoms: O_3  and  C_5 
REMARK    4  A    between atoms: C_6  and  O_10 
REMARK    5  A    between atoms: O_10  and  C_15 
REMARK    6  A    between atoms: C_17  and  N_20 
REMARK       I    between atoms: N_20  and  C_21 
ROOT
HETATM    1  O   UNK N   1      77.891   9.175  15.981  0.00  0.00    -0.259 OA
HETATM    2  C   UNK N   1      77.656   8.015  15.677  0.00  0.00     0.301 C 
ENDROOT
BRANCH   2   3
HETATM    3  O   UNK N   1      78.530   7.105  15.112  0.00  0.00    -0.275 OA
BRANCH   3   4
HETATM    4  C   UNK N   1      79.078   6.090  15.914  0.00  0.00     0.079 A 
HETATM    5  C   UNK N   1      79.221   4.779  15.470  0.00  0.00     0.039 A 
HETATM    6  C   UNK N   1      79.829   3.837  16.305  0.00  0.00     0.032 A 
HETATM    7  C   UNK N   1      80.315   4.207  17.567  0.00  0.00     0.034 A 
HETATM    8  C   UNK N   1      80.177   5.533  17.988  0.00  0.00     0.032 A 
HETATM    9  C   UNK N   1      79.566   6.478  17.159  0.00  0.00     0.039 A 
BRANCH   7  10
HETATM   10  N   UNK N   1      80.901   3.197  18.355  0.00  0.00    -0.328 N 
HETATM   11  C   UNK N   1      82.210   3.142  18.802  0.00  0.00     0.218 C 
HETATM   12  O   UNK N   1      83.105   3.940  18.555  0.00  0.00    -0.274 OA
HETATM   13  C   UNK N   1      82.469   1.918  19.644  0.00  0.00     0.117 C 
HETATM   14  H   UNK N   1      80.304   2.412  18.586  0.00  0.00     0.169 HD
ENDBRANCH   7  10
ENDBRANCH   3   4
ENDBRANCH   2   3
BRANCH   2  15
HETATM   15  C   UNK N   1      76.310   7.405  15.807  0.00  0.00     0.073 A 
HETATM   16  C   UNK N   1      75.410   7.254  14.745  0.00  0.00     0.095 A 
HETATM   17  C   UNK N   1      74.174   6.624  14.938  0.00  0.00     0.038 A 
HETATM   18  C   UNK N   1      73.821   6.165  16.207  0.00  0.00     0.003 A 
HETATM   19  C   UNK N   1      74.707   6.313  17.274  0.00  0.00     0.001 A 
HETATM   20  C   UNK N   1      75.948   6.924  17.075  0.00  0.00     0.020 A 
BRANCH  16  21
HETATM   21  O   UNK N   1      75.754   7.622  13.440  0.00  0.00    -0.278 OA
BRANCH  21  22
HETATM   22  C   UNK N   1      76.007   6.534  12.609  0.00  0.00     0.260 C 
HETATM   23  O   UNK N   1      76.848   5.663  12.780  0.00  0.00    -0.265 OA
HETATM   24  C   UNK N   1      75.067   6.588  11.442  0.00  0.00     0.126 C 
ENDBRANCH  21  22
ENDBRANCH  16  21
ENDBRANCH   2  15
TORSDOF 6
ENDMDL
MODEL 8
REMARK VINA RESULT:      -7.1     14.901     17.609
REMARK  6 active torsions:
REMARK  status: ('A' for Active; 'I' for Inactive)
REMARK    1  A    between atoms: C_2  and  O_3 
REMARK    2  A    between atoms: C_2  and  C_4 
REMARK    3  A    between atoms: O_3  and  C_5 
REMARK    4  A    between atoms: C_6  and  O_10 
REMARK    5  A    between atoms: O_10  and  C_15 
REMARK    6  A    between atoms: C_17  and  N_20 
REMARK       I    between atoms: N_20  and  C_21 
ROOT
HETATM    1  O   UNK N   1      92.800  12.689  43.263  0.00  0.00    -0.259 OA
HETATM    2  C   UNK N   1      92.830  13.709  42.591  0.00  0.00     0.301 C 
ENDROOT
BRANCH   2   3
HETATM    3  O   UNK N   1      93.510  13.909  41.404  0.00  0.00    -0.275 OA
BRANCH   3   4
HETATM    4  C   UNK N   1      94.914  13.882  41.403  0.00  0.00     0.079 A 
HETATM    5  C   UNK N   1      95.657  13.537  42.527  0.00  0.00     0.039 A 
HETATM    6  C   UNK N   1      97.051  13.477  42.433  0.00  0.00     0.032 A 
HETATM    7  C   UNK N   1      97.698  13.733  41.216  0.00  0.00     0.034 A 
HETATM    8  C   UNK N   1      96.932  14.061  40.094  0.00  0.00     0.032 A 
HETATM    9  C   UNK N   1      95.539  14.128  40.184  0.00  0.00     0.039 A 
BRANCH   7  10
HETATM   10  N   UNK N   1      99.105  13.667  41.206  0.00  0.00    -0.328 N 
HETATM   11  C   UNK N   1      99.990  14.703  41.449  0.00  0.00     0.218 C 
HETATM   12  O   UNK N   1      99.709  15.873  41.672  0.00  0.00    -0.274 OA
HETATM   13  C   UNK N   1     101.426  14.248  41.375  0.00  0.00     0.117 C 
HETATM   14  H   UNK N   1      99.506  12.770  40.958  0.00  0.00     0.169 HD
ENDBRANCH   7  10
ENDBRANCH   3   4
ENDBRANCH   2   3
BRANCH   2  15
HETATM   15  C   UNK N   1      92.166  14.968  43.008  0.00  0.00     0.073 A 
HETATM   16  C   UNK N   1      90.824  15.273  42.749  0.00  0.00     0.095 A 
HETATM   17  C   UNK N   1      90.257  16.464  43.218  0.00  0.00     0.038 A 
HETATM   18  C   UNK N   1      91.042  17.373  43.927  0.00  0.00     0.003 A 
HETATM   19  C   UNK N   1      92.381  17.084  44.188  0.00  0.00     0.001 A 
HETATM   20  C   UNK N   1      92.940  15.885  43.737  0.00  0.00     0.020 A 
BRANCH  16  21
HETATM   21  O   UNK N   1      89.978  14.356  42.115  0.00  0.00    -0.278 OA
BRANCH  21  22
HETATM   22  C   UNK N   1      89.797  14.620  40.760  0.00  0.00     0.260 C 
HETATM   23  O   UNK N   1      90.491  15.339  40.055  0.00  0.00    -0.265 OA
HETATM   24  C   UNK N   1      88.592  13.869  40.278  0.00  0.00     0.126 C 
ENDBRANCH  21  22
ENDBRANCH  16  21
ENDBRANCH   2  15
TORSDOF 6
ENDMDL
MODEL 9
REMARK VINA RESULT:      -7.0     14.959     17.447
REMARK  6 active torsions:
REMARK  status: ('A' for Active; 'I' for Inactive)
REMARK    1  A    between atoms: C_2  and  O_3 
REMARK    2  A    between atoms: C_2  and  C_4 
REMARK    3  A    between atoms: O_3  and  C_5 
REMARK    4  A    between atoms: C_6  and  O_10 
REMARK    5  A    between atoms: O_10  and  C_15 
REMARK    6  A    between atoms: C_17  and  N_20 
REMARK       I    between atoms: N_20  and  C_21 
ROOT
HETATM    1  O   UNK N   1      94.071  13.725  43.471  0.00  0.00    -0.259 OA
HETATM    2  C   UNK N   1      93.544  14.470  42.658  0.00  0.00     0.301 C 
ENDROOT
BRANCH   2   3
HETATM    3  O   UNK N   1      93.861  14.607  41.320  0.00  0.00    -0.275 OA
BRANCH   3   4
HETATM    4  C   UNK N   1      94.505  13.551  40.655  0.00  0.00     0.079 A 
HETATM    5  C   UNK N   1      95.871  13.552  40.391  0.00  0.00     0.039 A 
HETATM    6  C   UNK N   1      96.450  12.439  39.775  0.00  0.00     0.032 A 
HETATM    7  C   UNK N   1      95.674  11.317  39.448  0.00  0.00     0.034 A 
HETATM    8  C   UNK N   1      94.306  11.328  39.736  0.00  0.00     0.032 A 
HETATM    9  C   UNK N   1      93.721  12.441  40.347  0.00  0.00     0.039 A 
BRANCH   7  10
HETATM   10  N   UNK N   1      96.328  10.242  38.816  0.00  0.00    -0.328 N 
HETATM   11  C   UNK N   1      95.956   9.614  37.640  0.00  0.00     0.218 C 
HETATM   12  O   UNK N   1      94.965   9.853  36.961  0.00  0.00    -0.274 OA
HETATM   13  C   UNK N   1      96.914   8.515  37.257  0.00  0.00     0.117 C 
HETATM   14  H   UNK N   1      97.137   9.869  39.298  0.00  0.00     0.169 HD
ENDBRANCH   7  10
ENDBRANCH   3   4
ENDBRANCH   2   3
BRANCH   2  15
HETATM   15  C   UNK N   1      92.483  15.439  43.024  0.00  0.00     0.073 A 
HETATM   16  C   UNK N   1      91.146  15.332  42.620  0.00  0.00     0.095 A 
HETATM   17  C   UNK N   1      90.191  16.263  43.046  0.00  0.00     0.038 A 
HETATM   18  C   UNK N   1      90.578  17.328  43.860  0.00  0.00     0.003 A 
HETATM   19  C   UNK N   1      91.906  17.449  44.267  0.00  0.00     0.001 A 
HETATM   20  C   UNK N   1      92.853  16.507  43.857  0.00  0.00     0.020 A 
BRANCH  16  21
HETATM   21  O   UNK N   1      90.697  14.236  41.873  0.00  0.00    -0.278 OA
BRANCH  21  22
HETATM   22  C   UNK N   1      90.180  14.592  40.631  0.00  0.00     0.260 C 
HETATM   23  O   UNK N   1      90.715  15.301  39.791  0.00  0.00    -0.265 OA
HETATM   24  C   UNK N   1      88.831  13.955  40.469  0.00  0.00     0.126 C 
ENDBRANCH  21  22
ENDBRANCH  16  21
ENDBRANCH   2  15
TORSDOF 6
ENDMDL
