MODEL 1
REMARK VINA RESULT:      -7.4      0.000      0.000
REMARK  9 active torsions:
REMARK  status: ('A' for Active; 'I' for Inactive)
REMARK    1  A    between atoms: C_3  and  N_7 
REMARK       I    between atoms: N_7  and  C_10 
REMARK    2  A    between atoms: N_8  and  C_11 
REMARK    3  A    between atoms: C_10  and  O_14 
REMARK    4  A    between atoms: O_14  and  C_17 
REMARK    5  A    between atoms: C_16  and  O_19 
REMARK    6  A    between atoms: C_17  and  C_21 
REMARK    7  A    between atoms: C_20  and  O_23 
REMARK    8  A    between atoms: C_21  and  C_24 
REMARK    9  A    between atoms: C_24  and  C_25 
ROOT
HETATM    1  F   UNK N   1      87.934  13.948  40.737  0.00  0.00    -0.201 F 
HETATM    2  C   UNK N   1      89.186  14.272  41.099  0.00  0.00     0.176 A 
HETATM    3  C   UNK N   1      89.413  14.939  42.389  0.00  0.00     0.154 A 
HETATM    4  C   UNK N   1      90.266  14.046  40.360  0.00  0.00     0.144 A 
HETATM    5  N   UNK N   1      90.572  15.276  42.832  0.00  0.00    -0.292 N 
ATOM      6  HN  UNK N   1      90.661  15.751  43.731  1.00  0.00     0.172 HD
HETATM    7  N   UNK N   1      91.522  14.416  40.813  0.00  0.00    -0.277 N 
HETATM    8  C   UNK N   1      91.694  14.992  42.083  0.00  0.00     0.330 A 
HETATM    9  O   UNK N   1      92.809  15.264  42.517  0.00  0.00    -0.246 OA
ENDROOT
BRANCH   3  10
HETATM   10  N   UNK N   1      88.246  15.175  43.084  0.00  0.00    -0.286 N 
HETATM   11  C   UNK N   1      88.007  14.994  44.421  0.00  0.00     0.366 C 
HETATM   12  O   UNK N   1      88.788  14.620  45.280  0.00  0.00    -0.238 OA
HETATM   13  H   UNK N   1      87.442  15.517  42.577  0.00  0.00     0.172 HD
BRANCH  11  14
HETATM   14  O   UNK N   1      86.708  15.324  44.658  0.00  0.00    -0.304 OA
BRANCH  14  15
HETATM   15  C   UNK N   1      86.050  14.573  45.692  0.00  0.00     0.180 C 
BRANCH  15  16
HETATM   16  C   UNK N   1      84.978  15.430  46.360  0.00  0.00     0.027 C 
BRANCH  16  17
HETATM   17  C   UNK N   1      84.517  16.564  45.446  0.00  0.00     0.002 C 
BRANCH  17  18
HETATM   18  C   UNK N   1      83.793  17.654  46.236  0.00  0.00    -0.004 C 
HETATM   19  C   UNK N   1      83.796  17.357  47.726  0.00  0.00     0.005 C 
ENDBRANCH  17  18
ENDBRANCH  16  17
ENDBRANCH  15  16
ENDBRANCH  14  15
ENDBRANCH  11  14
ENDBRANCH   3  10
BRANCH   7  20
HETATM   20  C   UNK N   1      92.685  14.084  39.991  0.00  0.00     0.263 C 
HETATM   21  O   UNK N   1      92.316  14.112  38.605  0.00  0.00    -0.356 OA
HETATM   22  C   UNK N   1      93.136  13.138  37.916  0.00  0.00     0.151 C 
HETATM   23  C   UNK N   1      92.212  12.083  37.321  0.00  0.00     0.042 C 
HETATM   24  C   UNK N   1      94.119  12.559  38.938  0.00  0.00     0.179 C 
HETATM   25  C   UNK N   1      93.380  12.739  40.255  0.00  0.00     0.198 C 
BRANCH  24  26
HETATM   26  O   UNK N   1      95.323  13.343  38.965  0.00  0.00    -0.390 OA
HETATM   27  H   UNK N   1      95.036  14.238  39.242  0.00  0.00     0.210 HD
ENDBRANCH  24  26
BRANCH  25  28
HETATM   28  O   UNK N   1      94.296  12.774  41.355  0.00  0.00    -0.388 OA
HETATM   29  H   UNK N   1      93.915  13.388  42.009  0.00  0.00     0.210 HD
ENDBRANCH  25  28
ENDBRANCH   7  20
TORSDOF 9
ENDMDL
MODEL 2
REMARK VINA RESULT:      -6.7      1.549      2.550
REMARK  9 active torsions:
REMARK  status: ('A' for Active; 'I' for Inactive)
REMARK    1  A    between atoms: C_3  and  N_7 
REMARK       I    between atoms: N_7  and  C_10 
REMARK    2  A    between atoms: N_8  and  C_11 
REMARK    3  A    between atoms: C_10  and  O_14 
REMARK    4  A    between atoms: O_14  and  C_17 
REMARK    5  A    between atoms: C_16  and  O_19 
REMARK    6  A    between atoms: C_17  and  C_21 
REMARK    7  A    between atoms: C_20  and  O_23 
REMARK    8  A    between atoms: C_21  and  C_24 
REMARK    9  A    between atoms: C_24  and  C_25 
ROOT
HETATM    1  F   UNK N   1      87.922  14.032  40.812  0.00  0.00    -0.201 F 
HETATM    2  C   UNK N   1      89.182  14.331  41.166  0.00  0.00     0.176 A 
HETATM    3  C   UNK N   1      89.433  14.971  42.465  0.00  0.00     0.154 A 
HETATM    4  C   UNK N   1      90.251  14.103  40.412  0.00  0.00     0.144 A 
HETATM    5  N   UNK N   1      90.601  15.283  42.902  0.00  0.00    -0.292 N 
ATOM      6  HN  UNK N   1      90.706  15.739  43.809  1.00  0.00     0.172 HD
HETATM    7  N   UNK N   1      91.517  14.446  40.858  0.00  0.00    -0.277 N 
HETATM    8  C   UNK N   1      91.711  14.996  42.137  0.00  0.00     0.330 A 
HETATM    9  O   UNK N   1      92.834  15.243  42.563  0.00  0.00    -0.246 OA
ENDROOT
BRANCH   3  10
HETATM   10  N   UNK N   1      88.277  15.211  43.177  0.00  0.00    -0.286 N 
HETATM   11  C   UNK N   1      88.029  14.952  44.500  0.00  0.00     0.366 C 
HETATM   12  O   UNK N   1      88.793  14.490  45.331  0.00  0.00    -0.238 OA
HETATM   13  H   UNK N   1      87.489  15.620  42.696  0.00  0.00     0.172 HD
BRANCH  11  14
HETATM   14  O   UNK N   1      86.746  15.323  44.761  0.00  0.00    -0.304 OA
BRANCH  14  15
HETATM   15  C   UNK N   1      85.811  14.247  44.953  0.00  0.00     0.180 C 
BRANCH  15  16
HETATM   16  C   UNK N   1      85.853  13.299  43.758  0.00  0.00     0.027 C 
BRANCH  16  17
HETATM   17  C   UNK N   1      84.528  12.558  43.583  0.00  0.00     0.002 C 
BRANCH  17  18
HETATM   18  C   UNK N   1      84.745  11.165  42.992  0.00  0.00    -0.004 C 
HETATM   19  C   UNK N   1      85.649  11.213  41.771  0.00  0.00     0.005 C 
ENDBRANCH  17  18
ENDBRANCH  16  17
ENDBRANCH  15  16
ENDBRANCH  14  15
ENDBRANCH  11  14
ENDBRANCH   3  10
BRANCH   7  20
HETATM   20  C   UNK N   1      92.666  14.112  40.017  0.00  0.00     0.263 C 
HETATM   21  O   UNK N   1      92.281  14.163  38.637  0.00  0.00    -0.356 OA
HETATM   22  C   UNK N   1      93.081  13.189  37.925  0.00  0.00     0.151 C 
HETATM   23  C   UNK N   1      92.139  12.153  37.328  0.00  0.00     0.042 C 
HETATM   24  C   UNK N   1      94.070  12.586  38.927  0.00  0.00     0.179 C 
HETATM   25  C   UNK N   1      93.350  12.756  40.256  0.00  0.00     0.198 C 
BRANCH  24  26
HETATM   26  O   UNK N   1      95.283  13.356  38.950  0.00  0.00    -0.390 OA
HETATM   27  H   UNK N   1      95.836  12.936  39.641  0.00  0.00     0.210 HD
ENDBRANCH  24  26
BRANCH  25  28
HETATM   28  O   UNK N   1      94.279  12.766  41.344  0.00  0.00    -0.388 OA
HETATM   29  H   UNK N   1      94.109  11.955  41.857  0.00  0.00     0.210 HD
ENDBRANCH  25  28
ENDBRANCH   7  20
TORSDOF 9
ENDMDL
MODEL 3
REMARK VINA RESULT:      -6.6      2.066      2.755
REMARK  9 active torsions:
REMARK  status: ('A' for Active; 'I' for Inactive)
REMARK    1  A    between atoms: C_3  and  N_7 
REMARK       I    between atoms: N_7  and  C_10 
REMARK    2  A    between atoms: N_8  and  C_11 
REMARK    3  A    between atoms: C_10  and  O_14 
REMARK    4  A    between atoms: O_14  and  C_17 
REMARK    5  A    between atoms: C_16  and  O_19 
REMARK    6  A    between atoms: C_17  and  C_21 
REMARK    7  A    between atoms: C_20  and  O_23 
REMARK    8  A    between atoms: C_21  and  C_24 
REMARK    9  A    between atoms: C_24  and  C_25 
ROOT
HETATM    1  F   UNK N   1      88.267  12.825  42.792  0.00  0.00    -0.201 F 
HETATM    2  C   UNK N   1      89.106  13.873  42.856  0.00  0.00     0.176 A 
HETATM    3  C   UNK N   1      88.637  15.135  43.443  0.00  0.00     0.154 A 
HETATM    4  C   UNK N   1      90.356  13.865  42.406  0.00  0.00     0.144 A 
HETATM    5  N   UNK N   1      89.366  16.188  43.563  0.00  0.00    -0.292 N 
ATOM      6  HN  UNK N   1      88.975  17.040  43.968  1.00  0.00     0.172 HD
HETATM    7  N   UNK N   1      91.151  14.994  42.513  0.00  0.00    -0.277 N 
HETATM    8  C   UNK N   1      90.678  16.158  43.143  0.00  0.00     0.330 A 
HETATM    9  O   UNK N   1      91.397  17.140  43.297  0.00  0.00    -0.246 OA
ENDROOT
BRANCH   3  10
HETATM   10  N   UNK N   1      87.322  15.082  43.853  0.00  0.00    -0.286 N 
HETATM   11  C   UNK N   1      86.829  14.652  45.057  0.00  0.00     0.366 C 
HETATM   12  O   UNK N   1      87.454  14.263  46.029  0.00  0.00    -0.238 OA
HETATM   13  H   UNK N   1      86.603  15.380  43.210  0.00  0.00     0.172 HD
BRANCH  11  14
HETATM   14  O   UNK N   1      85.472  14.745  45.006  0.00  0.00    -0.304 OA
BRANCH  14  15
HETATM   15  C   UNK N   1      84.915  16.001  45.430  0.00  0.00     0.180 C 
BRANCH  15  16
HETATM   16  C   UNK N   1      83.409  16.016  45.181  0.00  0.00     0.027 C 
BRANCH  16  17
HETATM   17  C   UNK N   1      83.062  15.437  43.811  0.00  0.00     0.002 C 
BRANCH  17  18
HETATM   18  C   UNK N   1      81.724  15.974  43.304  0.00  0.00    -0.004 C 
HETATM   19  C   UNK N   1      81.865  17.380  42.743  0.00  0.00     0.005 C 
ENDBRANCH  17  18
ENDBRANCH  16  17
ENDBRANCH  15  16
ENDBRANCH  14  15
ENDBRANCH  11  14
ENDBRANCH   3  10
BRANCH   7  20
HETATM   20  C   UNK N   1      92.541  14.913  42.064  0.00  0.00     0.263 C 
HETATM   21  O   UNK N   1      92.655  13.918  41.037  0.00  0.00    -0.356 OA
HETATM   22  C   UNK N   1      93.979  13.341  41.133  0.00  0.00     0.151 C 
HETATM   23  C   UNK N   1      93.824  11.859  41.446  0.00  0.00     0.042 C 
HETATM   24  C   UNK N   1      94.733  14.104  42.226  0.00  0.00     0.179 C 
HETATM   25  C   UNK N   1      93.612  14.607  43.123  0.00  0.00     0.198 C 
BRANCH  24  26
HETATM   26  O   UNK N   1      95.421  15.231  41.659  0.00  0.00    -0.390 OA
HETATM   27  H   UNK N   1      95.960  15.594  42.393  0.00  0.00     0.210 HD
ENDBRANCH  24  26
BRANCH  25  28
HETATM   28  O   UNK N   1      94.027  15.757  43.867  0.00  0.00    -0.388 OA
HETATM   29  H   UNK N   1      95.002  15.743  43.870  0.00  0.00     0.210 HD
ENDBRANCH  25  28
ENDBRANCH   7  20
TORSDOF 9
ENDMDL
MODEL 4
REMARK VINA RESULT:      -6.4      9.472     12.289
REMARK  9 active torsions:
REMARK  status: ('A' for Active; 'I' for Inactive)
REMARK    1  A    between atoms: C_3  and  N_7 
REMARK       I    between atoms: N_7  and  C_10 
REMARK    2  A    between atoms: N_8  and  C_11 
REMARK    3  A    between atoms: C_10  and  O_14 
REMARK    4  A    between atoms: O_14  and  C_17 
REMARK    5  A    between atoms: C_16  and  O_19 
REMARK    6  A    between atoms: C_17  and  C_21 
REMARK    7  A    between atoms: C_20  and  O_23 
REMARK    8  A    between atoms: C_21  and  C_24 
REMARK    9  A    between atoms: C_24  and  C_25 
ROOT
HETATM    1  F   UNK N   1      81.107  22.496  43.212  0.00  0.00    -0.201 F 
HETATM    2  C   UNK N   1      81.331  21.173  43.272  0.00  0.00     0.176 A 
HETATM    3  C   UNK N   1      81.345  20.387  42.030  0.00  0.00     0.154 A 
HETATM    4  C   UNK N   1      81.534  20.494  44.395  0.00  0.00     0.144 A 
HETATM    5  N   UNK N   1      81.565  19.121  41.980  0.00  0.00    -0.292 N 
ATOM      6  HN  UNK N   1      81.547  18.631  41.085  1.00  0.00     0.172 HD
HETATM    7  N   UNK N   1      81.757  19.127  44.363  0.00  0.00    -0.277 N 
HETATM    8  C   UNK N   1      81.827  18.431  43.144  0.00  0.00     0.330 A 
HETATM    9  O   UNK N   1      82.087  17.233  43.104  0.00  0.00    -0.246 OA
ENDROOT
BRANCH   3  10
HETATM   10  N   UNK N   1      81.091  21.150  40.910  0.00  0.00    -0.286 N 
HETATM   11  C   UNK N   1      80.235  20.874  39.876  0.00  0.00     0.366 C 
HETATM   12  O   UNK N   1      79.493  19.915  39.750  0.00  0.00    -0.238 OA
HETATM   13  H   UNK N   1      81.585  22.024  40.797  0.00  0.00     0.172 HD
BRANCH  11  14
HETATM   14  O   UNK N   1      80.332  21.891  38.975  0.00  0.00    -0.304 OA
BRANCH  14  15
HETATM   15  C   UNK N   1      80.346  23.217  39.529  0.00  0.00     0.180 C 
BRANCH  15  16
HETATM   16  C   UNK N   1      80.814  24.218  38.476  0.00  0.00     0.027 C 
BRANCH  16  17
HETATM   17  C   UNK N   1      82.208  23.873  37.955  0.00  0.00     0.002 C 
BRANCH  17  18
HETATM   18  C   UNK N   1      83.101  25.113  37.894  0.00  0.00    -0.004 C 
HETATM   19  C   UNK N   1      84.574  24.740  37.932  0.00  0.00     0.005 C 
ENDBRANCH  17  18
ENDBRANCH  16  17
ENDBRANCH  15  16
ENDBRANCH  14  15
ENDBRANCH  11  14
ENDBRANCH   3  10
BRANCH   7  20
HETATM   20  C   UNK N   1      82.042  18.438  45.622  0.00  0.00     0.263 C 
HETATM   21  O   UNK N   1      81.234  18.996  46.667  0.00  0.00    -0.356 OA
HETATM   22  C   UNK N   1      81.980  18.884  47.902  0.00  0.00     0.151 C 
HETATM   23  C   UNK N   1      82.229  20.291  48.429  0.00  0.00     0.042 C 
HETATM   24  C   UNK N   1      83.275  18.129  47.589  0.00  0.00     0.179 C 
HETATM   25  C   UNK N   1      83.497  18.435  46.116  0.00  0.00     0.198 C 
BRANCH  24  26
HETATM   26  O   UNK N   1      83.074  16.715  47.749  0.00  0.00    -0.390 OA
HETATM   27  H   UNK N   1      83.522  16.307  46.979  0.00  0.00     0.210 HD
ENDBRANCH  24  26
BRANCH  25  28
HETATM   28  O   UNK N   1      84.309  17.429  45.501  0.00  0.00    -0.388 OA
HETATM   29  H   UNK N   1      84.206  16.625  46.042  0.00  0.00     0.210 HD
ENDBRANCH  25  28
ENDBRANCH   7  20
TORSDOF 9
ENDMDL
MODEL 5
REMARK VINA RESULT:      -6.4     20.425     23.914
REMARK  9 active torsions:
REMARK  status: ('A' for Active; 'I' for Inactive)
REMARK    1  A    between atoms: C_3  and  N_7 
REMARK       I    between atoms: N_7  and  C_10 
REMARK    2  A    between atoms: N_8  and  C_11 
REMARK    3  A    between atoms: C_10  and  O_14 
REMARK    4  A    between atoms: O_14  and  C_17 
REMARK    5  A    between atoms: C_16  and  O_19 
REMARK    6  A    between atoms: C_17  and  C_21 
REMARK    7  A    between atoms: C_20  and  O_23 
REMARK    8  A    between atoms: C_21  and  C_24 
REMARK    9  A    between atoms: C_24  and  C_25 
ROOT
HETATM    1  F   UNK N   1      83.978  -1.726  23.858  0.00  0.00    -0.201 F 
HETATM    2  C   UNK N   1      84.921  -0.786  24.041  0.00  0.00     0.176 A 
HETATM    3  C   UNK N   1      85.134   0.232  23.003  0.00  0.00     0.154 A 
HETATM    4  C   UNK N   1      85.709  -0.708  25.108  0.00  0.00     0.144 A 
HETATM    5  N   UNK N   1      85.999   1.180  23.090  0.00  0.00    -0.292 N 
ATOM      6  HN  UNK N   1      86.108   1.848  22.327  1.00  0.00     0.172 HD
HETATM    7  N   UNK N   1      86.657   0.296  25.212  0.00  0.00    -0.277 N 
HETATM    8  C   UNK N   1      86.777   1.287  24.223  0.00  0.00     0.330 A 
HETATM    9  O   UNK N   1      87.571   2.215  24.339  0.00  0.00    -0.246 OA
ENDROOT
BRANCH   3  10
HETATM   10  N   UNK N   1      84.309   0.067  21.912  0.00  0.00    -0.286 N 
HETATM   11  C   UNK N   1      84.620   0.219  20.586  0.00  0.00     0.366 C 
HETATM   12  O   UNK N   1      85.701   0.495  20.095  0.00  0.00    -0.238 OA
HETATM   13  H   UNK N   1      83.344  -0.189  22.069  0.00  0.00     0.172 HD
BRANCH  11  14
HETATM   14  O   UNK N   1      83.488  -0.013  19.865  0.00  0.00    -0.304 OA
BRANCH  14  15
HETATM   15  C   UNK N   1      82.250   0.158  20.575  0.00  0.00     0.180 C 
BRANCH  15  16
HETATM   16  C   UNK N   1      81.795   1.612  20.490  0.00  0.00     0.027 C 
BRANCH  16  17
HETATM   17  C   UNK N   1      80.794   1.952  21.593  0.00  0.00     0.002 C 
BRANCH  17  18
HETATM   18  C   UNK N   1      80.971   1.038  22.805  0.00  0.00    -0.004 C 
HETATM   19  C   UNK N   1      81.759   1.723  23.909  0.00  0.00     0.005 C 
ENDBRANCH  17  18
ENDBRANCH  16  17
ENDBRANCH  15  16
ENDBRANCH  14  15
ENDBRANCH  11  14
ENDBRANCH   3  10
BRANCH   7  20
HETATM   20  C   UNK N   1      87.453   0.378  26.437  0.00  0.00     0.263 C 
HETATM   21  O   UNK N   1      87.593  -0.931  27.005  0.00  0.00    -0.356 OA
HETATM   22  C   UNK N   1      87.684  -0.776  28.441  0.00  0.00     0.151 C 
HETATM   23  C   UNK N   1      86.498  -1.497  29.068  0.00  0.00     0.042 C 
HETATM   24  C   UNK N   1      87.692   0.726  28.741  0.00  0.00     0.179 C 
HETATM   25  C   UNK N   1      86.950   1.312  27.549  0.00  0.00     0.198 C 
BRANCH  24  26
HETATM   26  O   UNK N   1      89.040   1.223  28.745  0.00  0.00    -0.390 OA
HETATM   27  H   UNK N   1      88.982   2.114  28.341  0.00  0.00     0.210 HD
ENDBRANCH  24  26
BRANCH  25  28
HETATM   28  O   UNK N   1      87.305   2.684  27.349  0.00  0.00    -0.388 OA
HETATM   29  H   UNK N   1      88.199   2.682  26.962  0.00  0.00     0.210 HD
ENDBRANCH  25  28
ENDBRANCH   7  20
TORSDOF 9
ENDMDL
MODEL 6
REMARK VINA RESULT:      -6.4      1.546      1.794
REMARK  9 active torsions:
REMARK  status: ('A' for Active; 'I' for Inactive)
REMARK    1  A    between atoms: C_3  and  N_7 
REMARK       I    between atoms: N_7  and  C_10 
REMARK    2  A    between atoms: N_8  and  C_11 
REMARK    3  A    between atoms: C_10  and  O_14 
REMARK    4  A    between atoms: O_14  and  C_17 
REMARK    5  A    between atoms: C_16  and  O_19 
REMARK    6  A    between atoms: C_17  and  C_21 
REMARK    7  A    between atoms: C_20  and  O_23 
REMARK    8  A    between atoms: C_21  and  C_24 
REMARK    9  A    between atoms: C_24  and  C_25 
ROOT
HETATM    1  F   UNK N   1      87.181  11.713  41.551  0.00  0.00    -0.201 F 
HETATM    2  C   UNK N   1      88.073  12.686  41.303  0.00  0.00     0.176 A 
HETATM    3  C   UNK N   1      88.056  13.905  42.124  0.00  0.00     0.154 A 
HETATM    4  C   UNK N   1      88.987  12.643  40.341  0.00  0.00     0.144 A 
HETATM    5  N   UNK N   1      88.875  14.885  41.977  0.00  0.00    -0.292 N 
ATOM      6  HN  UNK N   1      88.801  15.711  42.571  1.00  0.00     0.172 HD
HETATM    7  N   UNK N   1      89.868  13.696  40.156  0.00  0.00    -0.277 N 
HETATM    8  C   UNK N   1      89.855  14.811  41.010  0.00  0.00     0.330 A 
HETATM    9  O   UNK N   1      90.673  15.718  40.892  0.00  0.00    -0.246 OA
ENDROOT
BRANCH   3  10
HETATM   10  N   UNK N   1      87.060  13.897  43.077  0.00  0.00    -0.286 N 
HETATM   11  C   UNK N   1      87.099  14.411  44.347  0.00  0.00     0.366 C 
HETATM   12  O   UNK N   1      88.012  15.016  44.884  0.00  0.00    -0.238 OA
HETATM   13  H   UNK N   1      86.178  13.458  42.851  0.00  0.00     0.172 HD
BRANCH  11  14
HETATM   14  O   UNK N   1      85.902  14.146  44.939  0.00  0.00    -0.304 OA
BRANCH  14  15
HETATM   15  C   UNK N   1      85.709  14.719  46.243  0.00  0.00     0.180 C 
BRANCH  15  16
HETATM   16  C   UNK N   1      84.282  15.246  46.376  0.00  0.00     0.027 C 
BRANCH  16  17
HETATM   17  C   UNK N   1      84.155  16.666  45.829  0.00  0.00     0.002 C 
BRANCH  17  18
HETATM   18  C   UNK N   1      83.276  17.532  46.730  0.00  0.00    -0.004 C 
HETATM   19  C   UNK N   1      83.688  18.994  46.673  0.00  0.00     0.005 C 
ENDBRANCH  17  18
ENDBRANCH  16  17
ENDBRANCH  15  16
ENDBRANCH  14  15
ENDBRANCH  11  14
ENDBRANCH   3  10
BRANCH   7  20
HETATM   20  C   UNK N   1      90.899  13.569  39.126  0.00  0.00     0.263 C 
HETATM   21  O   UNK N   1      90.395  12.780  38.039  0.00  0.00    -0.356 OA
HETATM   22  C   UNK N   1      91.516  12.073  37.457  0.00  0.00     0.151 C 
HETATM   23  C   UNK N   1      91.261  10.580  37.615  0.00  0.00     0.042 C 
HETATM   24  C   UNK N   1      92.781  12.540  38.184  0.00  0.00     0.179 C 
HETATM   25  C   UNK N   1      92.250  12.968  39.544  0.00  0.00     0.198 C 
BRANCH  24  26
HETATM   26  O   UNK N   1      93.340  13.683  37.518  0.00  0.00    -0.390 OA
HETATM   27  H   UNK N   1      94.243  13.407  37.256  0.00  0.00     0.210 HD
ENDBRANCH  24  26
BRANCH  25  28
HETATM   28  O   UNK N   1      93.130  13.912  40.163  0.00  0.00    -0.388 OA
HETATM   29  H   UNK N   1      92.801  14.795  39.916  0.00  0.00     0.210 HD
ENDBRANCH  25  28
ENDBRANCH   7  20
TORSDOF 9
ENDMDL
MODEL 7
REMARK VINA RESULT:      -6.3     29.899     32.676
REMARK  9 active torsions:
REMARK  status: ('A' for Active; 'I' for Inactive)
REMARK    1  A    between atoms: C_3  and  N_7 
REMARK       I    between atoms: N_7  and  C_10 
REMARK    2  A    between atoms: N_8  and  C_11 
REMARK    3  A    between atoms: C_10  and  O_14 
REMARK    4  A    between atoms: O_14  and  C_17 
REMARK    5  A    between atoms: C_16  and  O_19 
REMARK    6  A    between atoms: C_17  and  C_21 
REMARK    7  A    between atoms: C_20  and  O_23 
REMARK    8  A    between atoms: C_21  and  C_24 
REMARK    9  A    between atoms: C_24  and  C_25 
ROOT
HETATM    1  F   UNK N   1      76.697   5.115  17.424  0.00  0.00    -0.201 F 
HETATM    2  C   UNK N   1      75.515   4.968  16.802  0.00  0.00     0.176 A 
HETATM    3  C   UNK N   1      74.952   6.098  16.050  0.00  0.00     0.154 A 
HETATM    4  C   UNK N   1      74.786   3.858  16.824  0.00  0.00     0.144 A 
HETATM    5  N   UNK N   1      73.838   6.053  15.409  0.00  0.00    -0.292 N 
ATOM      6  HN  UNK N   1      73.494   6.879  14.918  1.00  0.00     0.172 HD
HETATM    7  N   UNK N   1      73.575   3.796  16.154  0.00  0.00    -0.277 N 
HETATM    8  C   UNK N   1      73.111   4.883  15.393  0.00  0.00     0.330 A 
HETATM    9  O   UNK N   1      72.071   4.813  14.745  0.00  0.00    -0.246 OA
ENDROOT
BRANCH   3  10
HETATM   10  N   UNK N   1      75.743   7.225  16.102  0.00  0.00    -0.286 N 
HETATM   11  C   UNK N   1      76.125   8.039  15.067  0.00  0.00     0.366 C 
HETATM   12  O   UNK N   1      75.814   7.955  13.891  0.00  0.00    -0.238 OA
HETATM   13  H   UNK N   1      76.114   7.516  16.995  0.00  0.00     0.172 HD
BRANCH  11  14
HETATM   14  O   UNK N   1      76.930   9.010  15.579  0.00  0.00    -0.304 OA
BRANCH  14  15
HETATM   15  C   UNK N   1      78.113   8.551  16.255  0.00  0.00     0.180 C 
BRANCH  15  16
HETATM   16  C   UNK N   1      78.929   7.654  15.328  0.00  0.00     0.027 C 
BRANCH  16  17
HETATM   17  C   UNK N   1      79.417   6.399  16.048  0.00  0.00     0.002 C 
BRANCH  17  18
HETATM   18  C   UNK N   1      79.482   5.203  15.098  0.00  0.00    -0.004 C 
HETATM   19  C   UNK N   1      78.243   5.120  14.223  0.00  0.00     0.005 C 
ENDBRANCH  17  18
ENDBRANCH  16  17
ENDBRANCH  15  16
ENDBRANCH  14  15
ENDBRANCH  11  14
ENDBRANCH   3  10
BRANCH   7  20
HETATM   20  C   UNK N   1      72.843   2.530  16.153  0.00  0.00     0.263 C 
HETATM   21  O   UNK N   1      73.112   1.821  17.370  0.00  0.00    -0.356 OA
HETATM   22  C   UNK N   1      73.042   0.405  17.075  0.00  0.00     0.151 C 
HETATM   23  C   UNK N   1      74.412  -0.200  17.351  0.00  0.00     0.042 C 
HETATM   24  C   UNK N   1      72.614   0.263  15.611  0.00  0.00     0.179 C 
HETATM   25  C   UNK N   1      73.102   1.561  14.988  0.00  0.00     0.198 C 
BRANCH  24  26
HETATM   26  O   UNK N   1      71.181   0.208  15.518  0.00  0.00    -0.390 OA
HETATM   27  H   UNK N   1      70.954  -0.734  15.667  0.00  0.00     0.210 HD
ENDBRANCH  24  26
BRANCH  25  28
HETATM   28  O   UNK N   1      72.357   1.874  13.807  0.00  0.00    -0.388 OA
HETATM   29  H   UNK N   1      72.753   2.686  13.441  0.00  0.00     0.210 HD
ENDBRANCH  25  28
ENDBRANCH   7  20
TORSDOF 9
ENDMDL
MODEL 8
REMARK VINA RESULT:      -6.2      9.229     14.915
REMARK  9 active torsions:
REMARK  status: ('A' for Active; 'I' for Inactive)
REMARK    1  A    between atoms: C_3  and  N_7 
REMARK       I    between atoms: N_7  and  C_10 
REMARK    2  A    between atoms: N_8  and  C_11 
REMARK    3  A    between atoms: C_10  and  O_14 
REMARK    4  A    between atoms: O_14  and  C_17 
REMARK    5  A    between atoms: C_16  and  O_19 
REMARK    6  A    between atoms: C_17  and  C_21 
REMARK    7  A    between atoms: C_20  and  O_23 
REMARK    8  A    between atoms: C_21  and  C_24 
REMARK    9  A    between atoms: C_24  and  C_25 
ROOT
HETATM    1  F   UNK N   1      91.723   5.237  34.429  0.00  0.00    -0.201 F 
HETATM    2  C   UNK N   1      91.564   6.479  33.942  0.00  0.00     0.176 A 
HETATM    3  C   UNK N   1      92.199   6.841  32.667  0.00  0.00     0.154 A 
HETATM    4  C   UNK N   1      90.870   7.440  34.543  0.00  0.00     0.144 A 
HETATM    5  N   UNK N   1      92.094   7.995  32.112  0.00  0.00    -0.292 N 
ATOM      6  HN  UNK N   1      92.573   8.188  31.231  1.00  0.00     0.172 HD
HETATM    7  N   UNK N   1      90.759   8.695  33.967  0.00  0.00    -0.277 N 
HETATM    8  C   UNK N   1      91.330   8.972  32.714  0.00  0.00     0.330 A 
HETATM    9  O   UNK N   1      91.182  10.061  32.169  0.00  0.00    -0.246 OA
ENDROOT
BRANCH   3  10
HETATM   10  N   UNK N   1      92.932   5.809  32.121  0.00  0.00    -0.286 N 
HETATM   11  C   UNK N   1      94.211   5.847  31.631  0.00  0.00     0.366 C 
HETATM   12  O   UNK N   1      94.979   6.793  31.609  0.00  0.00    -0.238 OA
HETATM   13  H   UNK N   1      92.503   4.897  32.049  0.00  0.00     0.172 HD
BRANCH  11  14
HETATM   14  O   UNK N   1      94.512   4.604  31.163  0.00  0.00    -0.304 OA
BRANCH  14  15
HETATM   15  C   UNK N   1      93.390   3.743  30.906  0.00  0.00     0.180 C 
BRANCH  15  16
HETATM   16  C   UNK N   1      93.806   2.606  29.977  0.00  0.00     0.027 C 
BRANCH  16  17
HETATM   17  C   UNK N   1      93.171   2.749  28.595  0.00  0.00     0.002 C 
BRANCH  17  18
HETATM   18  C   UNK N   1      94.087   2.198  27.503  0.00  0.00    -0.004 C 
HETATM   19  C   UNK N   1      93.660   0.807  27.067  0.00  0.00     0.005 C 
ENDBRANCH  17  18
ENDBRANCH  16  17
ENDBRANCH  15  16
ENDBRANCH  14  15
ENDBRANCH  11  14
ENDBRANCH   3  10
BRANCH   7  20
HETATM   20  C   UNK N   1      89.928   9.697  34.635  0.00  0.00     0.263 C 
HETATM   21  O   UNK N   1      89.973   9.487  36.053  0.00  0.00    -0.356 OA
HETATM   22  C   UNK N   1      88.700   9.909  36.598  0.00  0.00     0.151 C 
HETATM   23  C   UNK N   1      88.040   8.697  37.241  0.00  0.00     0.042 C 
HETATM   24  C   UNK N   1      87.879  10.492  35.444  0.00  0.00     0.179 C 
HETATM   25  C   UNK N   1      88.448   9.777  34.229  0.00  0.00     0.198 C 
BRANCH  24  26
HETATM   26  O   UNK N   1      88.131  11.901  35.319  0.00  0.00    -0.390 OA
HETATM   27  H   UNK N   1      87.257  12.298  35.122  0.00  0.00     0.210 HD
ENDBRANCH  24  26
BRANCH  25  28
HETATM   28  O   UNK N   1      88.222  10.535  33.036  0.00  0.00    -0.388 OA
HETATM   29  H   UNK N   1      87.278  10.779  33.042  0.00  0.00     0.210 HD
ENDBRANCH  25  28
ENDBRANCH   7  20
TORSDOF 9
ENDMDL
MODEL 9
REMARK VINA RESULT:      -6.2     29.392     31.717
REMARK  9 active torsions:
REMARK  status: ('A' for Active; 'I' for Inactive)
REMARK    1  A    between atoms: C_3  and  N_7 
REMARK       I    between atoms: N_7  and  C_10 
REMARK    2  A    between atoms: N_8  and  C_11 
REMARK    3  A    between atoms: C_10  and  O_14 
REMARK    4  A    between atoms: O_14  and  C_17 
REMARK    5  A    between atoms: C_16  and  O_19 
REMARK    6  A    between atoms: C_17  and  C_21 
REMARK    7  A    between atoms: C_20  and  O_23 
REMARK    8  A    between atoms: C_21  and  C_24 
REMARK    9  A    between atoms: C_24  and  C_25 
ROOT
HETATM    1  F   UNK N   1      77.665   6.417  13.619  0.00  0.00    -0.201 F 
HETATM    2  C   UNK N   1      79.003   6.374  13.513  0.00  0.00     0.176 A 
HETATM    3  C   UNK N   1      79.813   6.113  14.711  0.00  0.00     0.154 A 
HETATM    4  C   UNK N   1      79.676   6.566  12.383  0.00  0.00     0.144 A 
HETATM    5  N   UNK N   1      81.096   6.037  14.711  0.00  0.00    -0.292 N 
ATOM      6  HN  UNK N   1      81.601   5.868  15.582  1.00  0.00     0.172 HD
HETATM    7  N   UNK N   1      81.059   6.504  12.367  0.00  0.00    -0.277 N 
HETATM    8  C   UNK N   1      81.786   6.186  13.527  0.00  0.00     0.330 A 
HETATM    9  O   UNK N   1      83.006   6.067  13.506  0.00  0.00    -0.246 OA
ENDROOT
BRANCH   3  10
HETATM   10  N   UNK N   1      79.052   5.961  15.850  0.00  0.00    -0.286 N 
HETATM   11  C   UNK N   1      78.598   6.936  16.701  0.00  0.00     0.366 C 
HETATM   12  O   UNK N   1      78.744   8.142  16.606  0.00  0.00    -0.238 OA
HETATM   13  H   UNK N   1      78.781   5.029  16.130  0.00  0.00     0.172 HD
BRANCH  11  14
HETATM   14  O   UNK N   1      77.916   6.322  17.707  0.00  0.00    -0.304 OA
BRANCH  14  15
HETATM   15  C   UNK N   1      76.661   5.726  17.338  0.00  0.00     0.180 C 
BRANCH  15  16
HETATM   16  C   UNK N   1      75.589   6.805  17.203  0.00  0.00     0.027 C 
BRANCH  16  17
HETATM   17  C   UNK N   1      74.435   6.342  16.316  0.00  0.00     0.002 C 
BRANCH  17  18
HETATM   18  C   UNK N   1      74.282   7.240  15.089  0.00  0.00    -0.004 C 
HETATM   19  C   UNK N   1      75.298   8.370  15.096  0.00  0.00     0.005 C 
ENDBRANCH  17  18
ENDBRANCH  16  17
ENDBRANCH  15  16
ENDBRANCH  14  15
ENDBRANCH  11  14
ENDBRANCH   3  10
BRANCH   7  20
HETATM   20  C   UNK N   1      81.748   6.656  11.085  0.00  0.00     0.263 C 
HETATM   21  O   UNK N   1      80.829   7.152  10.103  0.00  0.00    -0.356 OA
HETATM   22  C   UNK N   1      81.233   6.622   8.819  0.00  0.00     0.151 C 
HETATM   23  C   UNK N   1      80.098   5.757   8.289  0.00  0.00     0.042 C 
HETATM   24  C   UNK N   1      82.529   5.834   9.035  0.00  0.00     0.179 C 
HETATM   25  C   UNK N   1      82.428   5.411  10.493  0.00  0.00     0.198 C 
BRANCH  24  26
HETATM   26  O   UNK N   1      83.666   6.698   8.876  0.00  0.00    -0.390 OA
HETATM   27  H   UNK N   1      83.411   7.535   9.318  0.00  0.00     0.210 HD
ENDBRANCH  24  26
BRANCH  25  28
HETATM   28  O   UNK N   1      83.723   5.149  11.041  0.00  0.00    -0.388 OA
HETATM   29  H   UNK N   1      83.582   4.913  11.976  0.00  0.00     0.210 HD
ENDBRANCH  25  28
ENDBRANCH   7  20
TORSDOF 9
ENDMDL
