MODEL 1
REMARK VINA RESULT:      -5.8      0.000      0.000
REMARK  8 active torsions:
REMARK  status: ('A' for Active; 'I' for Inactive)
REMARK    1  A    between atoms: S_1  and  C_2 
REMARK    2  A    between atoms: S_1  and  C_3 
REMARK    3  A    between atoms: C_2  and  C_4 
REMARK    4  A    between atoms: C_3  and  C_5 
REMARK    5  A    between atoms: C_4  and  O_7 
REMARK    6  A    between atoms: C_5  and  N_8 
REMARK    7  A    between atoms: C_5  and  C_9 
REMARK    8  A    between atoms: C_9  and  O_11 
ROOT
HETATM    1  C   UNK N   1      91.534  17.643  43.926  0.00  0.00     0.323 C 
ENDROOT
BRANCH   1   2
HETATM    2  C   UNK N   1      90.902  16.778  45.026  0.00  0.00     0.121 C 
BRANCH   2   3
HETATM    3  S   UNK N   1      91.291  14.991  44.902  0.00  0.00    -0.156 SA
BRANCH   3   4
HETATM    4  C   UNK N   1      89.967  14.443  43.774  0.00  0.00     0.183 C 
BRANCH   4   5
HETATM    5  C   UNK N   1      88.640  15.121  44.035  0.00  0.00     0.149 C 
HETATM    6  O   UNK N   1      87.878  14.979  44.975  0.00  0.00    -0.649 OA
BRANCH   5   7
HETATM    7  O   UNK N   1      88.325  15.987  43.046  0.00  0.00    -0.776 OA
HETATM    8  H   UNK N   1      87.344  15.971  43.025  0.00  0.00     0.167 HD
ENDBRANCH   5   7
ENDBRANCH   4   5
ENDBRANCH   3   4
ENDBRANCH   2   3
ENDBRANCH   1   2
BRANCH   1   9
HETATM    9  N   UNK N   1      93.013  17.466  43.926  0.00  0.00     0.094 N 
HETATM   10  H   UNK N   1      93.447  18.378  43.787  0.00  0.00     0.314 HD
HETATM   11  H   UNK N   1      93.285  17.197  44.878  0.00  0.00     0.314 HD
ENDBRANCH   1   9
BRANCH   1  12
HETATM   12  C   UNK N   1      91.190  19.121  44.138  0.00  0.00     0.174 C 
HETATM   13  O   UNK N   1      90.971  19.948  43.270  0.00  0.00    -0.648 OA
BRANCH  12  14
HETATM   14  O   UNK N   1      91.152  19.476  45.445  0.00  0.00    -0.775 OA
HETATM   15  H   UNK N   1      91.148  18.617  45.918  0.00  0.00     0.167 HD
ENDBRANCH  12  14
ENDBRANCH   1  12
TORSDOF 8
ENDMDL
MODEL 2
REMARK VINA RESULT:      -5.4      1.815      1.910
REMARK  8 active torsions:
REMARK  status: ('A' for Active; 'I' for Inactive)
REMARK    1  A    between atoms: S_1  and  C_2 
REMARK    2  A    between atoms: S_1  and  C_3 
REMARK    3  A    between atoms: C_2  and  C_4 
REMARK    4  A    between atoms: C_3  and  C_5 
REMARK    5  A    between atoms: C_4  and  O_7 
REMARK    6  A    between atoms: C_5  and  N_8 
REMARK    7  A    between atoms: C_5  and  C_9 
REMARK    8  A    between atoms: C_9  and  O_11 
ROOT
HETATM    1  C   UNK N   1      91.540  17.582  43.890  0.00  0.00     0.323 C 
ENDROOT
BRANCH   1   2
HETATM    2  C   UNK N   1      90.884  16.656  44.924  0.00  0.00     0.121 C 
BRANCH   2   3
HETATM    3  S   UNK N   1      89.660  15.485  44.224  0.00  0.00    -0.156 SA
BRANCH   3   4
HETATM    4  C   UNK N   1      90.609  14.817  42.817  0.00  0.00     0.183 C 
BRANCH   4   5
HETATM    5  C   UNK N   1      89.925  15.022  41.483  0.00  0.00     0.149 C 
HETATM    6  O   UNK N   1      89.081  14.331  40.940  0.00  0.00    -0.649 OA
BRANCH   5   7
HETATM    7  O   UNK N   1      90.365  16.144  40.870  0.00  0.00    -0.776 OA
HETATM    8  H   UNK N   1      89.724  16.278  40.140  0.00  0.00     0.167 HD
ENDBRANCH   5   7
ENDBRANCH   4   5
ENDBRANCH   3   4
ENDBRANCH   2   3
ENDBRANCH   1   2
BRANCH   1   9
HETATM    9  N   UNK N   1      93.020  17.414  43.924  0.00  0.00     0.094 N 
HETATM   10  H   UNK N   1      93.273  16.662  43.283  0.00  0.00     0.314 HD
HETATM   11  H   UNK N   1      93.429  18.256  43.505  0.00  0.00     0.314 HD
ENDBRANCH   1   9
BRANCH   1  12
HETATM   12  C   UNK N   1      91.179  19.044  44.171  0.00  0.00     0.174 C 
HETATM   13  O   UNK N   1      90.974  19.914  43.342  0.00  0.00    -0.648 OA
BRANCH  12  14
HETATM   14  O   UNK N   1      91.107  19.330  45.493  0.00  0.00    -0.775 OA
HETATM   15  H   UNK N   1      91.886  18.871  45.872  0.00  0.00     0.167 HD
ENDBRANCH  12  14
ENDBRANCH   1  12
TORSDOF 8
ENDMDL
MODEL 3
REMARK VINA RESULT:      -5.4      1.675      2.046
REMARK  8 active torsions:
REMARK  status: ('A' for Active; 'I' for Inactive)
REMARK    1  A    between atoms: S_1  and  C_2 
REMARK    2  A    between atoms: S_1  and  C_3 
REMARK    3  A    between atoms: C_2  and  C_4 
REMARK    4  A    between atoms: C_3  and  C_5 
REMARK    5  A    between atoms: C_4  and  O_7 
REMARK    6  A    between atoms: C_5  and  N_8 
REMARK    7  A    between atoms: C_5  and  C_9 
REMARK    8  A    between atoms: C_9  and  O_11 
ROOT
HETATM    1  C   UNK N   1      91.041  17.493  44.166  0.00  0.00     0.323 C 
ENDROOT
BRANCH   1   2
HETATM    2  C   UNK N   1      92.449  16.894  44.037  0.00  0.00     0.121 C 
BRANCH   2   3
HETATM    3  S   UNK N   1      92.573  15.135  44.536  0.00  0.00    -0.156 SA
BRANCH   3   4
HETATM    4  C   UNK N   1      91.321  15.078  45.861  0.00  0.00     0.183 C 
BRANCH   4   5
HETATM    5  C   UNK N   1      90.032  14.409  45.438  0.00  0.00     0.149 C 
HETATM    6  O   UNK N   1      89.655  14.110  44.318  0.00  0.00    -0.649 OA
BRANCH   5   7
HETATM    7  O   UNK N   1      89.242  14.140  46.501  0.00  0.00    -0.776 OA
HETATM    8  H   UNK N   1      88.656  14.924  46.561  0.00  0.00     0.167 HD
ENDBRANCH   5   7
ENDBRANCH   4   5
ENDBRANCH   3   4
ENDBRANCH   2   3
ENDBRANCH   1   2
BRANCH   1   9
HETATM    9  N   UNK N   1      90.192  17.043  43.028  0.00  0.00     0.094 N 
HETATM   10  H   UNK N   1      90.623  16.219  42.610  0.00  0.00     0.314 HD
HETATM   11  H   UNK N   1      89.312  16.697  43.425  0.00  0.00     0.314 HD
ENDBRANCH   1   9
BRANCH   1  12
HETATM   12  C   UNK N   1      91.106  19.023  44.190  0.00  0.00     0.174 C 
HETATM   13  O   UNK N   1      91.053  19.768  43.226  0.00  0.00    -0.648 OA
BRANCH  12  14
HETATM   14  O   UNK N   1      91.244  19.531  45.438  0.00  0.00    -0.775 OA
HETATM   15  H   UNK N   1      90.428  20.061  45.563  0.00  0.00     0.167 HD
ENDBRANCH  12  14
ENDBRANCH   1  12
TORSDOF 8
ENDMDL
MODEL 4
REMARK VINA RESULT:      -5.2      3.661      4.123
REMARK  8 active torsions:
REMARK  status: ('A' for Active; 'I' for Inactive)
REMARK    1  A    between atoms: S_1  and  C_2 
REMARK    2  A    between atoms: S_1  and  C_3 
REMARK    3  A    between atoms: C_2  and  C_4 
REMARK    4  A    between atoms: C_3  and  C_5 
REMARK    5  A    between atoms: C_4  and  O_7 
REMARK    6  A    between atoms: C_5  and  N_8 
REMARK    7  A    between atoms: C_5  and  C_9 
REMARK    8  A    between atoms: C_9  and  O_11 
ROOT
HETATM    1  C   UNK N   1      91.017  17.439  44.189  0.00  0.00     0.323 C 
ENDROOT
BRANCH   1   2
HETATM    2  C   UNK N   1      92.404  16.823  43.953  0.00  0.00     0.121 C 
BRANCH   2   3
HETATM    3  S   UNK N   1      92.614  15.140  44.647  0.00  0.00    -0.156 SA
BRANCH   3   4
HETATM    4  C   UNK N   1      93.322  14.275  43.205  0.00  0.00     0.183 C 
BRANCH   4   5
HETATM    5  C   UNK N   1      94.833  14.225  43.220  0.00  0.00     0.149 C 
HETATM    6  O   UNK N   1      95.596  13.843  42.350  0.00  0.00    -0.649 OA
BRANCH   5   7
HETATM    7  O   UNK N   1      95.331  14.681  44.391  0.00  0.00    -0.776 OA
HETATM    8  H   UNK N   1      96.131  15.182  44.125  0.00  0.00     0.167 HD
ENDBRANCH   5   7
ENDBRANCH   4   5
ENDBRANCH   3   4
ENDBRANCH   2   3
ENDBRANCH   1   2
BRANCH   1   9
HETATM    9  N   UNK N   1      90.082  17.014  43.109  0.00  0.00     0.094 N 
HETATM   10  H   UNK N   1      89.316  17.686  43.064  0.00  0.00     0.314 HD
HETATM   11  H   UNK N   1      90.577  17.131  42.218  0.00  0.00     0.314 HD
ENDBRANCH   1   9
BRANCH   1  12
HETATM   12  C   UNK N   1      91.105  18.967  44.226  0.00  0.00     0.174 C 
HETATM   13  O   UNK N   1      91.057  19.721  43.269  0.00  0.00    -0.648 OA
BRANCH  12  14
HETATM   14  O   UNK N   1      91.258  19.462  45.477  0.00  0.00    -0.775 OA
HETATM   15  H   UNK N   1      92.189  19.247  45.699  0.00  0.00     0.167 HD
ENDBRANCH  12  14
ENDBRANCH   1  12
TORSDOF 8
ENDMDL
MODEL 5
REMARK VINA RESULT:      -5.2     36.195     36.821
REMARK  8 active torsions:
REMARK  status: ('A' for Active; 'I' for Inactive)
REMARK    1  A    between atoms: S_1  and  C_2 
REMARK    2  A    between atoms: S_1  and  C_3 
REMARK    3  A    between atoms: C_2  and  C_4 
REMARK    4  A    between atoms: C_3  and  C_5 
REMARK    5  A    between atoms: C_4  and  O_7 
REMARK    6  A    between atoms: C_5  and  N_8 
REMARK    7  A    between atoms: C_5  and  C_9 
REMARK    8  A    between atoms: C_9  and  O_11 
ROOT
HETATM    1  C   UNK N   1      82.844  39.025  16.000  0.00  0.00     0.323 C 
ENDROOT
BRANCH   1   2
HETATM    2  C   UNK N   1      83.473  37.633  16.155  0.00  0.00     0.121 C 
BRANCH   2   3
HETATM    3  S   UNK N   1      84.887  37.311  15.034  0.00  0.00    -0.156 SA
BRANCH   3   4
HETATM    4  C   UNK N   1      84.026  37.237  13.428  0.00  0.00     0.183 C 
BRANCH   4   5
HETATM    5  C   UNK N   1      83.314  35.924  13.191  0.00  0.00     0.149 C 
HETATM    6  O   UNK N   1      82.121  35.678  13.247  0.00  0.00    -0.649 OA
BRANCH   5   7
HETATM    7  O   UNK N   1      84.185  34.938  12.883  0.00  0.00    -0.776 OA
HETATM    8  H   UNK N   1      84.404  34.539  13.752  0.00  0.00     0.167 HD
ENDBRANCH   5   7
ENDBRANCH   4   5
ENDBRANCH   3   4
ENDBRANCH   2   3
ENDBRANCH   1   2
BRANCH   1   9
HETATM    9  N   UNK N   1      83.088  39.832  17.228  0.00  0.00     0.094 N 
HETATM   10  H   UNK N   1      82.383  39.583  17.922  0.00  0.00     0.314 HD
HETATM   11  H   UNK N   1      83.972  39.506  17.633  0.00  0.00     0.314 HD
ENDBRANCH   1   9
BRANCH   1  12
HETATM   12  C   UNK N   1      81.338  38.911  15.747  0.00  0.00     0.174 C 
HETATM   13  O   UNK N   1      80.495  39.761  15.981  0.00  0.00    -0.648 OA
BRANCH  12  14
HETATM   14  O   UNK N   1      80.976  37.719  15.216  0.00  0.00    -0.775 OA
HETATM   15  H   UNK N   1      80.620  37.957  14.333  0.00  0.00     0.167 HD
ENDBRANCH  12  14
ENDBRANCH   1  12
TORSDOF 8
ENDMDL
MODEL 6
REMARK VINA RESULT:      -5.0     31.598     32.865
REMARK  8 active torsions:
REMARK  status: ('A' for Active; 'I' for Inactive)
REMARK    1  A    between atoms: S_1  and  C_2 
REMARK    2  A    between atoms: S_1  and  C_3 
REMARK    3  A    between atoms: C_2  and  C_4 
REMARK    4  A    between atoms: C_3  and  C_5 
REMARK    5  A    between atoms: C_4  and  O_7 
REMARK    6  A    between atoms: C_5  and  N_8 
REMARK    7  A    between atoms: C_5  and  C_9 
REMARK    8  A    between atoms: C_9  and  O_11 
ROOT
HETATM    1  C   UNK N   1      78.127   6.682  17.015  0.00  0.00     0.323 C 
ENDROOT
BRANCH   1   2
HETATM    2  C   UNK N   1      76.625   6.587  17.320  0.00  0.00     0.121 C 
BRANCH   2   3
HETATM    3  S   UNK N   1      75.619   5.879  15.961  0.00  0.00    -0.156 SA
BRANCH   3   4
HETATM    4  C   UNK N   1      74.641   7.341  15.478  0.00  0.00     0.183 C 
BRANCH   4   5
HETATM    5  C   UNK N   1      75.405   8.309  14.602  0.00  0.00     0.149 C 
HETATM    6  O   UNK N   1      75.560   9.510  14.740  0.00  0.00    -0.649 OA
BRANCH   5   7
HETATM    7  O   UNK N   1      75.961   7.681  13.541  0.00  0.00    -0.776 OA
HETATM    8  H   UNK N   1      75.316   7.831  12.817  0.00  0.00     0.167 HD
ENDBRANCH   5   7
ENDBRANCH   4   5
ENDBRANCH   3   4
ENDBRANCH   2   3
ENDBRANCH   1   2
BRANCH   1   9
HETATM    9  N   UNK N   1      78.892   6.857  18.282  0.00  0.00     0.094 N 
HETATM   10  H   UNK N   1      78.967   5.949  18.740  0.00  0.00     0.314 HD
HETATM   11  H   UNK N   1      79.856   7.093  18.022  0.00  0.00     0.314 HD
ENDBRANCH   1   9
BRANCH   1  12
HETATM   12  C   UNK N   1      78.412   7.855  16.073  0.00  0.00     0.174 C 
HETATM   13  O   UNK N   1      78.844   7.785  14.935  0.00  0.00    -0.648 OA
BRANCH  12  14
HETATM   14  O   UNK N   1      78.143   9.061  16.628  0.00  0.00    -0.775 OA
HETATM   15  H   UNK N   1      77.362   9.378  16.126  0.00  0.00     0.167 HD
ENDBRANCH  12  14
ENDBRANCH   1  12
TORSDOF 8
ENDMDL
MODEL 7
REMARK VINA RESULT:      -5.0      2.278      4.849
REMARK  8 active torsions:
REMARK  status: ('A' for Active; 'I' for Inactive)
REMARK    1  A    between atoms: S_1  and  C_2 
REMARK    2  A    between atoms: S_1  and  C_3 
REMARK    3  A    between atoms: C_2  and  C_4 
REMARK    4  A    between atoms: C_3  and  C_5 
REMARK    5  A    between atoms: C_4  and  O_7 
REMARK    6  A    between atoms: C_5  and  N_8 
REMARK    7  A    between atoms: C_5  and  C_9 
REMARK    8  A    between atoms: C_9  and  O_11 
ROOT
HETATM    1  C   UNK N   1      88.784  14.525  43.390  0.00  0.00     0.323 C 
ENDROOT
BRANCH   1   2
HETATM    2  C   UNK N   1      89.395  15.863  42.949  0.00  0.00     0.121 C 
BRANCH   2   3
HETATM    3  S   UNK N   1      91.179  16.043  43.327  0.00  0.00    -0.156 SA
BRANCH   3   4
HETATM    4  C   UNK N   1      91.100  17.134  44.786  0.00  0.00     0.183 C 
BRANCH   4   5
HETATM    5  C   UNK N   1      91.141  18.605  44.435  0.00  0.00     0.149 C 
HETATM    6  O   UNK N   1      91.190  19.131  43.337  0.00  0.00    -0.649 OA
BRANCH   5   7
HETATM    7  O   UNK N   1      91.118  19.378  45.544  0.00  0.00    -0.776 OA
HETATM    8  H   UNK N   1      90.393  20.015  45.370  0.00  0.00     0.167 HD
ENDBRANCH   5   7
ENDBRANCH   4   5
ENDBRANCH   3   4
ENDBRANCH   2   3
ENDBRANCH   1   2
BRANCH   1   9
HETATM    9  N   UNK N   1      87.772  14.076  42.393  0.00  0.00     0.094 N 
HETATM   10  H   UNK N   1      87.634  13.071  42.505  0.00  0.00     0.314 HD
HETATM   11  H   UNK N   1      86.874  14.489  42.667  0.00  0.00     0.314 HD
ENDBRANCH   1   9
BRANCH   1  12
HETATM   12  C   UNK N   1      88.129  14.659  44.768  0.00  0.00     0.174 C 
HETATM   13  O   UNK N   1      86.990  15.030  44.998  0.00  0.00    -0.648 OA
BRANCH  12  14
HETATM   14  O   UNK N   1      88.956  14.323  45.786  0.00  0.00    -0.775 OA
HETATM   15  H   UNK N   1      88.410  14.474  46.587  0.00  0.00     0.167 HD
ENDBRANCH  12  14
ENDBRANCH   1  12
TORSDOF 8
ENDMDL
MODEL 8
REMARK VINA RESULT:      -4.9     36.448     36.904
REMARK  8 active torsions:
REMARK  status: ('A' for Active; 'I' for Inactive)
REMARK    1  A    between atoms: S_1  and  C_2 
REMARK    2  A    between atoms: S_1  and  C_3 
REMARK    3  A    between atoms: C_2  and  C_4 
REMARK    4  A    between atoms: C_3  and  C_5 
REMARK    5  A    between atoms: C_4  and  O_7 
REMARK    6  A    between atoms: C_5  and  N_8 
REMARK    7  A    between atoms: C_5  and  C_9 
REMARK    8  A    between atoms: C_9  and  O_11 
ROOT
HETATM    1  C   UNK N   1      84.674  36.697  14.289  0.00  0.00     0.323 C 
ENDROOT
BRANCH   1   2
HETATM    2  C   UNK N   1      84.546  38.199  14.001  0.00  0.00     0.121 C 
BRANCH   2   3
HETATM    3  S   UNK N   1      84.314  39.240  15.493  0.00  0.00    -0.156 SA
BRANCH   3   4
HETATM    4  C   UNK N   1      82.968  38.332  16.323  0.00  0.00     0.183 C 
BRANCH   4   5
HETATM    5  C   UNK N   1      81.589  38.782  15.894  0.00  0.00     0.149 C 
HETATM    6  O   UNK N   1      81.068  39.877  16.016  0.00  0.00    -0.649 OA
BRANCH   5   7
HETATM    7  O   UNK N   1      80.903  37.778  15.305  0.00  0.00    -0.776 OA
HETATM    8  H   UNK N   1      81.085  37.003  15.878  0.00  0.00     0.167 HD
ENDBRANCH   5   7
ENDBRANCH   4   5
ENDBRANCH   3   4
ENDBRANCH   2   3
ENDBRANCH   1   2
BRANCH   1   9
HETATM    9  N   UNK N   1      86.032  36.219  13.902  0.00  0.00     0.094 N 
HETATM   10  H   UNK N   1      85.967  35.232  13.655  0.00  0.00     0.314 HD
HETATM   11  H   UNK N   1      86.277  36.688  13.023  0.00  0.00     0.314 HD
ENDBRANCH   1   9
BRANCH   1  12
HETATM   12  C   UNK N   1      83.610  35.908  13.520  0.00  0.00     0.174 C 
HETATM   13  O   UNK N   1      82.414  36.141  13.488  0.00  0.00    -0.648 OA
BRANCH  12  14
HETATM   14  O   UNK N   1      84.119  34.855  12.837  0.00  0.00    -0.775 OA
HETATM   15  H   UNK N   1      84.932  35.216  12.426  0.00  0.00     0.167 HD
ENDBRANCH  12  14
ENDBRANCH   1  12
TORSDOF 8
ENDMDL
MODEL 9
REMARK VINA RESULT:      -4.8     10.051     11.474
REMARK  8 active torsions:
REMARK  status: ('A' for Active; 'I' for Inactive)
REMARK    1  A    between atoms: S_1  and  C_2 
REMARK    2  A    between atoms: S_1  and  C_3 
REMARK    3  A    between atoms: C_2  and  C_4 
REMARK    4  A    between atoms: C_3  and  C_5 
REMARK    5  A    between atoms: C_4  and  O_7 
REMARK    6  A    between atoms: C_5  and  N_8 
REMARK    7  A    between atoms: C_5  and  C_9 
REMARK    8  A    between atoms: C_9  and  O_11 
ROOT
HETATM    1  C   UNK N   1      93.762  26.666  45.901  0.00  0.00     0.323 C 
ENDROOT
BRANCH   1   2
HETATM    2  C   UNK N   1      93.698  25.466  46.856  0.00  0.00     0.121 C 
BRANCH   2   3
HETATM    3  S   UNK N   1      95.259  25.129  47.757  0.00  0.00    -0.156 SA
BRANCH   3   4
HETATM    4  C   UNK N   1      96.468  25.319  46.404  0.00  0.00     0.183 C 
BRANCH   4   5
HETATM    5  C   UNK N   1      97.480  26.414  46.656  0.00  0.00     0.149 C 
HETATM    6  O   UNK N   1      98.677  26.421  46.424  0.00  0.00    -0.649 OA
BRANCH   5   7
HETATM    7  O   UNK N   1      96.904  27.500  47.218  0.00  0.00    -0.776 OA
HETATM    8  H   UNK N   1      96.756  27.230  48.150  0.00  0.00     0.167 HD
ENDBRANCH   5   7
ENDBRANCH   4   5
ENDBRANCH   3   4
ENDBRANCH   2   3
ENDBRANCH   1   2
BRANCH   1   9
HETATM    9  N   UNK N   1      93.966  27.922  46.676  0.00  0.00     0.094 N 
HETATM   10  H   UNK N   1      93.176  28.040  47.311  0.00  0.00     0.314 HD
HETATM   11  H   UNK N   1      94.770  27.768  47.294  0.00  0.00     0.314 HD
ENDBRANCH   1   9
BRANCH   1  12
HETATM   12  C   UNK N   1      92.475  26.769  45.078  0.00  0.00     0.174 C 
HETATM   13  O   UNK N   1      91.350  26.479  45.448  0.00  0.00    -0.648 OA
BRANCH  12  14
HETATM   14  O   UNK N   1      92.682  27.228  43.821  0.00  0.00    -0.775 OA
HETATM   15  H   UNK N   1      93.581  27.619  43.862  0.00  0.00     0.167 HD
ENDBRANCH  12  14
ENDBRANCH   1  12
TORSDOF 8
ENDMDL
