MODEL 1
REMARK VINA RESULT:      -7.5      0.000      0.000
REMARK  7 active torsions:
REMARK  status: ('A' for Active; 'I' for Inactive)
REMARK    1  A    between atoms: C_9  and  O_11 
REMARK    2  A    between atoms: O_11  and  C_13 
REMARK    3  A    between atoms: C_13  and  C_14 
REMARK    4  A    between atoms: C_14  and  O_15 
REMARK    5  A    between atoms: C_14  and  C_16 
REMARK    6  A    between atoms: C_16  and  N_17 
REMARK    7  A    between atoms: N_17  and  C_18 
ROOT
HETATM    1  O   UNK N   1      97.424  13.006  40.328  0.00  0.00    -0.273 OA
HETATM    2  C   UNK N   1      96.250  13.358  40.228  0.00  0.00     0.222 C 
HETATM    3  N   UNK N   1      95.435  12.827  39.265  0.00  0.00    -0.327 N 
HETATM    4  C   UNK N   1      95.657  14.458  41.074  0.00  0.00     0.108 C 
HETATM    5  C   UNK N   1      94.082  13.153  39.118  0.00  0.00     0.043 A 
HETATM    6  C   UNK N   1      94.191  14.199  41.384  0.00  0.00     0.053 C 
HETATM    7  C   UNK N   1      93.421  13.858  40.134  0.00  0.00     0.002 A 
HETATM    8  C   UNK N   1      93.404  12.747  37.972  0.00  0.00     0.030 A 
HETATM    9  C   UNK N   1      92.052  14.144  39.999  0.00  0.00     0.077 A 
HETATM   10  C   UNK N   1      92.052  13.049  37.831  0.00  0.00     0.005 A 
HETATM   11  C   UNK N   1      91.379  13.743  38.840  0.00  0.00     0.037 A 
HETATM   12  H   UNK N   1      95.864  12.151  38.648  0.00  0.00     0.169 HD
ENDROOT
BRANCH   9  13
HETATM   13  O   UNK N   1      91.474  14.807  41.048  0.00  0.00    -0.348 OA
BRANCH  13  14
HETATM   14  C   UNK N   1      90.117  15.246  40.894  0.00  0.00     0.209 C 
BRANCH  14  15
HETATM   15  C   UNK N   1      89.309  14.747  42.102  0.00  0.00     0.170 C 
BRANCH  15  16
HETATM   16  O   UNK N   1      87.992  14.355  41.673  0.00  0.00    -0.392 OA
HETATM   17  H   UNK N   1      88.099  13.586  41.089  0.00  0.00     0.210 HD
ENDBRANCH  15  16
BRANCH  15  18
HETATM   18  C   UNK N   1      89.176  15.824  43.201  0.00  0.00     0.304 C 
BRANCH  18  19
HETATM   19  N   UNK N   1      90.256  16.811  43.108  0.00  0.00     0.094 N 
HETATM   20  H   UNK N   1      89.836  17.736  42.975  0.00  0.00     0.317 HD
BRANCH  19  21
HETATM   21  C   UNK N   1      91.212  16.847  44.227  0.00  0.00     0.147 C 
HETATM   22  C   UNK N   1      90.836  15.834  45.322  0.00  0.00     0.048 C 
HETATM   23  C   UNK N   1      92.658  16.608  43.764  0.00  0.00     0.048 C 
HETATM   24  C   UNK N   1      91.119  18.265  44.822  0.00  0.00     0.048 C 
ENDBRANCH  19  21
ENDBRANCH  18  19
ENDBRANCH  15  18
ENDBRANCH  14  15
ENDBRANCH  13  14
ENDBRANCH   9  13
TORSDOF 7
ENDMDL
MODEL 2
REMARK VINA RESULT:      -6.6      2.647      4.061
REMARK  7 active torsions:
REMARK  status: ('A' for Active; 'I' for Inactive)
REMARK    1  A    between atoms: C_9  and  O_11 
REMARK    2  A    between atoms: O_11  and  C_13 
REMARK    3  A    between atoms: C_13  and  C_14 
REMARK    4  A    between atoms: C_14  and  O_15 
REMARK    5  A    between atoms: C_14  and  C_16 
REMARK    6  A    between atoms: C_16  and  N_17 
REMARK    7  A    between atoms: N_17  and  C_18 
ROOT
HETATM    1  O   UNK N   1      89.575   9.058  36.490  0.00  0.00    -0.273 OA
HETATM    2  C   UNK N   1      89.878  10.080  37.101  0.00  0.00     0.222 C 
HETATM    3  N   UNK N   1      91.067  10.717  36.865  0.00  0.00    -0.327 N 
HETATM    4  C   UNK N   1      89.027  10.644  38.212  0.00  0.00     0.108 C 
HETATM    5  C   UNK N   1      91.458  11.903  37.495  0.00  0.00     0.043 A 
HETATM    6  C   UNK N   1      89.092  12.163  38.253  0.00  0.00     0.053 C 
HETATM    7  C   UNK N   1      90.518  12.649  38.221  0.00  0.00     0.002 A 
HETATM    8  C   UNK N   1      92.774  12.339  37.369  0.00  0.00     0.030 A 
HETATM    9  C   UNK N   1      90.908  13.861  38.815  0.00  0.00     0.077 A 
HETATM   10  C   UNK N   1      93.163  13.531  37.975  0.00  0.00     0.005 A 
HETATM   11  C   UNK N   1      92.234  14.289  38.694  0.00  0.00     0.037 A 
HETATM   12  H   UNK N   1      91.670  10.284  36.177  0.00  0.00     0.169 HD
ENDROOT
BRANCH   9  13
HETATM   13  O   UNK N   1      89.924  14.545  39.478  0.00  0.00    -0.348 OA
BRANCH  13  14
HETATM   14  C   UNK N   1      90.274  15.187  40.712  0.00  0.00     0.209 C 
BRANCH  14  15
HETATM   15  C   UNK N   1      89.451  14.545  41.839  0.00  0.00     0.170 C 
BRANCH  15  16
HETATM   16  O   UNK N   1      88.129  14.241  41.358  0.00  0.00    -0.392 OA
HETATM   17  H   UNK N   1      88.023  13.277  41.402  0.00  0.00     0.210 HD
ENDBRANCH  15  16
BRANCH  15  18
HETATM   18  C   UNK N   1      89.333  15.465  43.074  0.00  0.00     0.304 C 
BRANCH  18  19
HETATM   19  N   UNK N   1      90.145  16.674  42.913  0.00  0.00     0.094 N 
HETATM   20  H   UNK N   1      89.514  17.475  42.813  0.00  0.00     0.317 HD
BRANCH  19  21
HETATM   21  C   UNK N   1      91.141  16.944  43.964  0.00  0.00     0.147 C 
HETATM   22  C   UNK N   1      91.231  18.446  44.281  0.00  0.00     0.048 C 
HETATM   23  C   UNK N   1      90.858  16.151  45.250  0.00  0.00     0.048 C 
HETATM   24  C   UNK N   1      92.496  16.484  43.395  0.00  0.00     0.048 C 
ENDBRANCH  19  21
ENDBRANCH  18  19
ENDBRANCH  15  18
ENDBRANCH  14  15
ENDBRANCH  13  14
ENDBRANCH   9  13
TORSDOF 7
ENDMDL
MODEL 3
REMARK VINA RESULT:      -6.6      1.997      6.146
REMARK  7 active torsions:
REMARK  status: ('A' for Active; 'I' for Inactive)
REMARK    1  A    between atoms: C_9  and  O_11 
REMARK    2  A    between atoms: O_11  and  C_13 
REMARK    3  A    between atoms: C_13  and  C_14 
REMARK    4  A    between atoms: C_14  and  O_15 
REMARK    5  A    between atoms: C_14  and  C_16 
REMARK    6  A    between atoms: C_16  and  N_17 
REMARK    7  A    between atoms: N_17  and  C_18 
ROOT
HETATM    1  O   UNK N   1      90.544  15.888  45.765  0.00  0.00    -0.273 OA
HETATM    2  C   UNK N   1      90.474  15.499  44.601  0.00  0.00     0.222 C 
HETATM    3  N   UNK N   1      89.299  15.019  44.087  0.00  0.00    -0.327 N 
HETATM    4  C   UNK N   1      91.680  15.422  43.697  0.00  0.00     0.108 C 
HETATM    5  C   UNK N   1      89.139  14.595  42.764  0.00  0.00     0.043 A 
HETATM    6  C   UNK N   1      91.314  15.711  42.249  0.00  0.00     0.053 C 
HETATM    7  C   UNK N   1      90.125  14.893  41.813  0.00  0.00     0.002 A 
HETATM    8  C   UNK N   1      87.984  13.905  42.405  0.00  0.00     0.030 A 
HETATM    9  C   UNK N   1      89.938  14.502  40.476  0.00  0.00     0.077 A 
HETATM   10  C   UNK N   1      87.809  13.502  41.084  0.00  0.00     0.005 A 
HETATM   11  C   UNK N   1      88.781  13.799  40.123  0.00  0.00     0.037 A 
HETATM   12  H   UNK N   1      88.516  14.995  44.727  0.00  0.00     0.169 HD
ENDROOT
BRANCH   9  13
HETATM   13  O   UNK N   1      90.932  14.858  39.605  0.00  0.00    -0.348 OA
BRANCH  13  14
HETATM   14  C   UNK N   1      91.409  13.858  38.694  0.00  0.00     0.209 C 
BRANCH  14  15
HETATM   15  C   UNK N   1      92.920  14.064  38.502  0.00  0.00     0.170 C 
BRANCH  15  16
HETATM   16  O   UNK N   1      93.334  13.468  37.259  0.00  0.00    -0.392 OA
HETATM   17  H   UNK N   1      92.955  12.574  37.230  0.00  0.00     0.210 HD
ENDBRANCH  15  16
BRANCH  15  18
HETATM   18  C   UNK N   1      93.746  13.447  39.651  0.00  0.00     0.304 C 
BRANCH  18  19
HETATM   19  N   UNK N   1      95.178  13.695  39.466  0.00  0.00     0.094 N 
HETATM   20  H   UNK N   1      95.342  14.703  39.543  0.00  0.00     0.317 HD
BRANCH  19  21
HETATM   21  C   UNK N   1      96.094  12.964  40.358  0.00  0.00     0.147 C 
HETATM   22  C   UNK N   1      95.516  12.841  41.779  0.00  0.00     0.048 C 
HETATM   23  C   UNK N   1      96.450  11.572  39.813  0.00  0.00     0.048 C 
HETATM   24  C   UNK N   1      97.382  13.805  40.428  0.00  0.00     0.048 C 
ENDBRANCH  19  21
ENDBRANCH  18  19
ENDBRANCH  15  18
ENDBRANCH  14  15
ENDBRANCH  13  14
ENDBRANCH   9  13
TORSDOF 7
ENDMDL
MODEL 4
REMARK VINA RESULT:      -6.5      2.319      5.910
REMARK  7 active torsions:
REMARK  status: ('A' for Active; 'I' for Inactive)
REMARK    1  A    between atoms: C_9  and  O_11 
REMARK    2  A    between atoms: O_11  and  C_13 
REMARK    3  A    between atoms: C_13  and  C_14 
REMARK    4  A    between atoms: C_14  and  O_15 
REMARK    5  A    between atoms: C_14  and  C_16 
REMARK    6  A    between atoms: C_16  and  N_17 
REMARK    7  A    between atoms: N_17  and  C_18 
ROOT
HETATM    1  O   UNK N   1      87.879  14.992  45.171  0.00  0.00    -0.273 OA
HETATM    2  C   UNK N   1      88.301  14.714  44.051  0.00  0.00     0.222 C 
HETATM    3  N   UNK N   1      87.539  13.998  43.167  0.00  0.00    -0.327 N 
HETATM    4  C   UNK N   1      89.706  15.042  43.608  0.00  0.00     0.108 C 
HETATM    5  C   UNK N   1      87.941  13.679  41.866  0.00  0.00     0.043 A 
HETATM    6  C   UNK N   1      89.765  15.366  42.123  0.00  0.00     0.053 C 
HETATM    7  C   UNK N   1      89.059  14.314  41.307  0.00  0.00     0.002 A 
HETATM    8  C   UNK N   1      87.204  12.752  41.133  0.00  0.00     0.030 A 
HETATM    9  C   UNK N   1      89.432  14.021  39.984  0.00  0.00     0.077 A 
HETATM   10  C   UNK N   1      87.587  12.448  39.829  0.00  0.00     0.005 A 
HETATM   11  C   UNK N   1      88.695  13.080  39.257  0.00  0.00     0.037 A 
HETATM   12  H   UNK N   1      86.629  13.710  43.503  0.00  0.00     0.169 HD
ENDROOT
BRANCH   9  13
HETATM   13  O   UNK N   1      90.515  14.706  39.503  0.00  0.00    -0.348 OA
BRANCH  13  14
HETATM   14  C   UNK N   1      91.209  14.150  38.377  0.00  0.00     0.209 C 
BRANCH  14  15
HETATM   15  C   UNK N   1      92.714  14.169  38.683  0.00  0.00     0.170 C 
BRANCH  15  16
HETATM   16  O   UNK N   1      93.445  13.688  37.540  0.00  0.00    -0.392 OA
HETATM   17  H   UNK N   1      94.389  13.743  37.760  0.00  0.00     0.210 HD
ENDBRANCH  15  16
BRANCH  15  18
HETATM   18  C   UNK N   1      93.074  13.300  39.908  0.00  0.00     0.304 C 
BRANCH  18  19
HETATM   19  N   UNK N   1      92.851  14.030  41.159  0.00  0.00     0.094 N 
HETATM   20  H   UNK N   1      92.079  13.581  41.660  0.00  0.00     0.317 HD
BRANCH  19  21
HETATM   21  C   UNK N   1      94.013  14.180  42.051  0.00  0.00     0.147 C 
HETATM   22  C   UNK N   1      95.258  14.651  41.278  0.00  0.00     0.048 C 
HETATM   23  C   UNK N   1      93.729  15.135  43.221  0.00  0.00     0.048 C 
HETATM   24  C   UNK N   1      94.296  12.778  42.621  0.00  0.00     0.048 C 
ENDBRANCH  19  21
ENDBRANCH  18  19
ENDBRANCH  15  18
ENDBRANCH  14  15
ENDBRANCH  13  14
ENDBRANCH   9  13
TORSDOF 7
ENDMDL
MODEL 5
REMARK VINA RESULT:      -6.5      1.479      2.154
REMARK  7 active torsions:
REMARK  status: ('A' for Active; 'I' for Inactive)
REMARK    1  A    between atoms: C_9  and  O_11 
REMARK    2  A    between atoms: O_11  and  C_13 
REMARK    3  A    between atoms: C_13  and  C_14 
REMARK    4  A    between atoms: C_14  and  O_15 
REMARK    5  A    between atoms: C_14  and  C_16 
REMARK    6  A    between atoms: C_16  and  N_17 
REMARK    7  A    between atoms: N_17  and  C_18 
ROOT
HETATM    1  O   UNK N   1      95.757  11.973  39.106  0.00  0.00    -0.273 OA
HETATM    2  C   UNK N   1      94.589  12.327  38.967  0.00  0.00     0.222 C 
HETATM    3  N   UNK N   1      93.675  11.516  38.348  0.00  0.00    -0.327 N 
HETATM    4  C   UNK N   1      94.103  13.699  39.365  0.00  0.00     0.108 C 
HETATM    5  C   UNK N   1      92.323  11.839  38.189  0.00  0.00     0.043 A 
HETATM    6  C   UNK N   1      92.666  13.664  39.861  0.00  0.00     0.053 C 
HETATM    7  C   UNK N   1      91.775  12.915  38.901  0.00  0.00     0.002 A 
HETATM    8  C   UNK N   1      91.533  11.065  37.344  0.00  0.00     0.030 A 
HETATM    9  C   UNK N   1      90.407  13.207  38.770  0.00  0.00     0.077 A 
HETATM   10  C   UNK N   1      90.182  11.368  37.200  0.00  0.00     0.005 A 
HETATM   11  C   UNK N   1      89.621  12.433  37.910  0.00  0.00     0.037 A 
HETATM   12  H   UNK N   1      94.029  10.631  38.009  0.00  0.00     0.169 HD
ENDROOT
BRANCH   9  13
HETATM   13  O   UNK N   1      89.945  14.253  39.522  0.00  0.00    -0.348 OA
BRANCH  13  14
HETATM   14  C   UNK N   1      88.835  14.006  40.397  0.00  0.00     0.209 C 
BRANCH  14  15
HETATM   15  C   UNK N   1      89.223  14.466  41.810  0.00  0.00     0.170 C 
BRANCH  15  16
HETATM   16  O   UNK N   1      88.039  14.834  42.540  0.00  0.00    -0.392 OA
HETATM   17  H   UNK N   1      87.387  15.145  41.891  0.00  0.00     0.210 HD
ENDBRANCH  15  16
BRANCH  15  18
HETATM   18  C   UNK N   1      90.190  15.670  41.788  0.00  0.00     0.304 C 
BRANCH  18  19
HETATM   19  N   UNK N   1      89.995  16.527  42.962  0.00  0.00     0.094 N 
HETATM   20  H   UNK N   1      89.180  16.183  43.478  0.00  0.00     0.317 HD
BRANCH  19  21
HETATM   21  C   UNK N   1      91.145  16.671  43.870  0.00  0.00     0.147 C 
HETATM   22  C   UNK N   1      91.498  18.151  44.100  0.00  0.00     0.048 C 
HETATM   23  C   UNK N   1      90.913  15.970  45.218  0.00  0.00     0.048 C 
HETATM   24  C   UNK N   1      92.333  15.991  43.165  0.00  0.00     0.048 C 
ENDBRANCH  19  21
ENDBRANCH  18  19
ENDBRANCH  15  18
ENDBRANCH  14  15
ENDBRANCH  13  14
ENDBRANCH   9  13
TORSDOF 7
ENDMDL
MODEL 6
REMARK VINA RESULT:      -6.3     29.345     31.244
REMARK  7 active torsions:
REMARK  status: ('A' for Active; 'I' for Inactive)
REMARK    1  A    between atoms: C_9  and  O_11 
REMARK    2  A    between atoms: O_11  and  C_13 
REMARK    3  A    between atoms: C_13  and  C_14 
REMARK    4  A    between atoms: C_14  and  O_15 
REMARK    5  A    between atoms: C_14  and  C_16 
REMARK    6  A    between atoms: C_16  and  N_17 
REMARK    7  A    between atoms: N_17  and  C_18 
ROOT
HETATM    1  O   UNK N   1      83.034   5.575  12.469  0.00  0.00    -0.273 OA
HETATM    2  C   UNK N   1      82.049   5.859  13.147  0.00  0.00     0.222 C 
HETATM    3  N   UNK N   1      81.892   5.354  14.410  0.00  0.00    -0.327 N 
HETATM    4  C   UNK N   1      80.906   6.686  12.612  0.00  0.00     0.108 C 
HETATM    5  C   UNK N   1      80.817   5.664  15.250  0.00  0.00     0.043 A 
HETATM    6  C   UNK N   1      80.279   7.547  13.698  0.00  0.00     0.053 C 
HETATM    7  C   UNK N   1      79.967   6.732  14.928  0.00  0.00     0.002 A 
HETATM    8  C   UNK N   1      80.623   4.921  16.411  0.00  0.00     0.030 A 
HETATM    9  C   UNK N   1      78.915   7.066  15.797  0.00  0.00     0.077 A 
HETATM   10  C   UNK N   1      79.568   5.241  17.261  0.00  0.00     0.005 A 
HETATM   11  C   UNK N   1      78.718   6.309  16.957  0.00  0.00     0.037 A 
HETATM   12  H   UNK N   1      82.623   4.732  14.730  0.00  0.00     0.169 HD
ENDROOT
BRANCH   9  13
HETATM   13  O   UNK N   1      78.152   8.140  15.427  0.00  0.00    -0.348 OA
BRANCH  13  14
HETATM   14  C   UNK N   1      76.852   8.271  16.020  0.00  0.00     0.209 C 
BRANCH  14  15
HETATM   15  C   UNK N   1      75.819   8.402  14.890  0.00  0.00     0.170 C 
BRANCH  15  16
HETATM   16  O   UNK N   1      75.643   9.792  14.557  0.00  0.00    -0.392 OA
HETATM   17  H   UNK N   1      76.229   9.983  13.807  0.00  0.00     0.210 HD
ENDBRANCH  15  16
BRANCH  15  18
HETATM   18  C   UNK N   1      74.449   7.804  15.277  0.00  0.00     0.304 C 
BRANCH  18  19
HETATM   19  N   UNK N   1      74.176   6.577  14.523  0.00  0.00     0.094 N 
HETATM   20  H   UNK N   1      74.945   6.427  13.864  0.00  0.00     0.317 HD
BRANCH  19  21
HETATM   21  C   UNK N   1      73.943   5.357  15.314  0.00  0.00     0.147 C 
HETATM   22  C   UNK N   1      74.783   4.179  14.791  0.00  0.00     0.048 C 
HETATM   23  C   UNK N   1      74.215   5.573  16.811  0.00  0.00     0.048 C 
HETATM   24  C   UNK N   1      72.453   5.010  15.134  0.00  0.00     0.048 C 
ENDBRANCH  19  21
ENDBRANCH  18  19
ENDBRANCH  15  18
ENDBRANCH  14  15
ENDBRANCH  13  14
ENDBRANCH   9  13
TORSDOF 7
ENDMDL
MODEL 7
REMARK VINA RESULT:      -6.3      1.860      2.550
REMARK  7 active torsions:
REMARK  status: ('A' for Active; 'I' for Inactive)
REMARK    1  A    between atoms: C_9  and  O_11 
REMARK    2  A    between atoms: O_11  and  C_13 
REMARK    3  A    between atoms: C_13  and  C_14 
REMARK    4  A    between atoms: C_14  and  O_15 
REMARK    5  A    between atoms: C_14  and  C_16 
REMARK    6  A    between atoms: C_16  and  N_17 
REMARK    7  A    between atoms: N_17  and  C_18 
ROOT
HETATM    1  O   UNK N   1      96.756  13.821  40.225  0.00  0.00    -0.273 OA
HETATM    2  C   UNK N   1      95.558  14.049  40.374  0.00  0.00     0.222 C 
HETATM    3  N   UNK N   1      94.666  13.825  39.359  0.00  0.00    -0.327 N 
HETATM    4  C   UNK N   1      95.000  14.680  41.626  0.00  0.00     0.108 C 
HETATM    5  C   UNK N   1      93.286  14.027  39.471  0.00  0.00     0.043 A 
HETATM    6  C   UNK N   1      93.607  14.160  41.945  0.00  0.00     0.053 C 
HETATM    7  C   UNK N   1      92.711  14.223  40.735  0.00  0.00     0.002 A 
HETATM    8  C   UNK N   1      92.498  14.002  38.323  0.00  0.00     0.030 A 
HETATM    9  C   UNK N   1      91.319  14.382  40.845  0.00  0.00     0.077 A 
HETATM   10  C   UNK N   1      91.122  14.179  38.433  0.00  0.00     0.005 A 
HETATM   11  C   UNK N   1      90.534  14.367  39.687  0.00  0.00     0.037 A 
HETATM   12  H   UNK N   1      95.060  13.481  38.494  0.00  0.00     0.169 HD
ENDROOT
BRANCH   9  13
HETATM   13  O   UNK N   1      90.834  14.536  42.115  0.00  0.00    -0.348 OA
BRANCH  13  14
HETATM   14  C   UNK N   1      89.705  15.403  42.297  0.00  0.00     0.209 C 
BRANCH  14  15
HETATM   15  C   UNK N   1      89.938  16.237  43.566  0.00  0.00     0.170 C 
BRANCH  15  16
HETATM   16  O   UNK N   1      90.284  17.586  43.200  0.00  0.00    -0.392 OA
HETATM   17  H   UNK N   1      91.117  17.542  42.702  0.00  0.00     0.210 HD
ENDBRANCH  15  16
BRANCH  15  18
HETATM   18  C   UNK N   1      91.063  15.655  44.450  0.00  0.00     0.304 C 
BRANCH  18  19
HETATM   19  N   UNK N   1      90.606  14.465  45.172  0.00  0.00     0.094 N 
HETATM   20  H   UNK N   1      90.258  13.787  44.487  0.00  0.00     0.317 HD
BRANCH  19  21
HETATM   21  C   UNK N   1      91.582  13.822  46.068  0.00  0.00     0.147 C 
HETATM   22  C   UNK N   1      93.023  14.229  45.713  0.00  0.00     0.048 C 
HETATM   23  C   UNK N   1      91.301  14.125  47.548  0.00  0.00     0.048 C 
HETATM   24  C   UNK N   1      91.435  12.306  45.842  0.00  0.00     0.048 C 
ENDBRANCH  19  21
ENDBRANCH  18  19
ENDBRANCH  15  18
ENDBRANCH  14  15
ENDBRANCH  13  14
ENDBRANCH   9  13
TORSDOF 7
ENDMDL
MODEL 8
REMARK VINA RESULT:      -6.2      2.096      2.955
REMARK  7 active torsions:
REMARK  status: ('A' for Active; 'I' for Inactive)
REMARK    1  A    between atoms: C_9  and  O_11 
REMARK    2  A    between atoms: O_11  and  C_13 
REMARK    3  A    between atoms: C_13  and  C_14 
REMARK    4  A    between atoms: C_14  and  O_15 
REMARK    5  A    between atoms: C_14  and  C_16 
REMARK    6  A    between atoms: C_16  and  N_17 
REMARK    7  A    between atoms: N_17  and  C_18 
ROOT
HETATM    1  O   UNK N   1      96.824  12.639  39.930  0.00  0.00    -0.273 OA
HETATM    2  C   UNK N   1      95.720  13.123  40.166  0.00  0.00     0.222 C 
HETATM    3  N   UNK N   1      94.792  13.282  39.171  0.00  0.00    -0.327 N 
HETATM    4  C   UNK N   1      95.345  13.668  41.522  0.00  0.00     0.108 C 
HETATM    5  C   UNK N   1      93.505  13.791  39.375  0.00  0.00     0.043 A 
HETATM    6  C   UNK N   1      93.869  13.456  41.824  0.00  0.00     0.053 C 
HETATM    7  C   UNK N   1      93.006  13.921  40.679  0.00  0.00     0.002 A 
HETATM    8  C   UNK N   1      92.726  14.135  38.273  0.00  0.00     0.030 A 
HETATM    9  C   UNK N   1      91.696  14.392  40.874  0.00  0.00     0.077 A 
HETATM   10  C   UNK N   1      91.436  14.621  38.470  0.00  0.00     0.005 A 
HETATM   11  C   UNK N   1      90.923  14.748  39.764  0.00  0.00     0.037 A 
HETATM   12  H   UNK N   1      95.083  12.991  38.247  0.00  0.00     0.169 HD
ENDROOT
BRANCH   9  13
HETATM   13  O   UNK N   1      91.274  14.460  42.175  0.00  0.00    -0.348 OA
BRANCH  13  14
HETATM   14  C   UNK N   1      91.443  15.706  42.866  0.00  0.00     0.209 C 
BRANCH  14  15
HETATM   15  C   UNK N   1      90.101  16.084  43.511  0.00  0.00     0.170 C 
BRANCH  15  16
HETATM   16  O   UNK N   1      90.268  16.207  44.935  0.00  0.00    -0.392 OA
HETATM   17  H   UNK N   1      91.216  16.110  45.122  0.00  0.00     0.210 HD
ENDBRANCH  15  16
BRANCH  15  18
HETATM   18  C   UNK N   1      88.999  15.040  43.225  0.00  0.00     0.304 C 
BRANCH  18  19
HETATM   19  N   UNK N   1      87.727  15.433  43.837  0.00  0.00     0.094 N 
HETATM   20  H   UNK N   1      87.136  15.850  43.111  0.00  0.00     0.317 HD
BRANCH  19  21
HETATM   21  C   UNK N   1      86.985  14.379  44.549  0.00  0.00     0.147 C 
HETATM   22  C   UNK N   1      85.738  14.944  45.251  0.00  0.00     0.048 C 
HETATM   23  C   UNK N   1      86.585  13.221  43.620  0.00  0.00     0.048 C 
HETATM   24  C   UNK N   1      87.944  13.834  45.623  0.00  0.00     0.048 C 
ENDBRANCH  19  21
ENDBRANCH  18  19
ENDBRANCH  15  18
ENDBRANCH  14  15
ENDBRANCH  13  14
ENDBRANCH   9  13
TORSDOF 7
ENDMDL
MODEL 9
REMARK VINA RESULT:      -6.2      2.179      5.245
REMARK  7 active torsions:
REMARK  status: ('A' for Active; 'I' for Inactive)
REMARK    1  A    between atoms: C_9  and  O_11 
REMARK    2  A    between atoms: O_11  and  C_13 
REMARK    3  A    between atoms: C_13  and  C_14 
REMARK    4  A    between atoms: C_14  and  O_15 
REMARK    5  A    between atoms: C_14  and  C_16 
REMARK    6  A    between atoms: C_16  and  N_17 
REMARK    7  A    between atoms: N_17  and  C_18 
ROOT
HETATM    1  O   UNK N   1      96.066  13.914  42.605  0.00  0.00    -0.273 OA
HETATM    2  C   UNK N   1      94.868  14.156  42.476  0.00  0.00     0.222 C 
HETATM    3  N   UNK N   1      94.248  15.089  43.264  0.00  0.00    -0.327 N 
HETATM    4  C   UNK N   1      93.980  13.384  41.531  0.00  0.00     0.108 C 
HETATM    5  C   UNK N   1      92.899  15.441  43.147  0.00  0.00     0.043 A 
HETATM    6  C   UNK N   1      92.887  14.264  40.943  0.00  0.00     0.053 C 
HETATM    7  C   UNK N   1      92.168  15.034  42.021  0.00  0.00     0.002 A 
HETATM    8  C   UNK N   1      92.309  16.217  44.141  0.00  0.00     0.030 A 
HETATM    9  C   UNK N   1      90.826  15.428  41.888  0.00  0.00     0.077 A 
HETATM   10  C   UNK N   1      90.973  16.589  44.016  0.00  0.00     0.005 A 
HETATM   11  C   UNK N   1      90.235  16.197  42.896  0.00  0.00     0.037 A 
HETATM   12  H   UNK N   1      94.833  15.542  43.954  0.00  0.00     0.169 HD
ENDROOT
BRANCH   9  13
HETATM   13  O   UNK N   1      90.193  15.016  40.746  0.00  0.00    -0.348 OA
BRANCH  13  14
HETATM   14  C   UNK N   1      89.153  14.037  40.877  0.00  0.00     0.209 C 
BRANCH  14  15
HETATM   15  C   UNK N   1      88.493  13.849  39.502  0.00  0.00     0.170 C 
BRANCH  15  16
HETATM   16  O   UNK N   1      87.112  13.483  39.676  0.00  0.00    -0.392 OA
HETATM   17  H   UNK N   1      86.792  13.940  40.470  0.00  0.00     0.210 HD
ENDBRANCH  15  16
BRANCH  15  18
HETATM   18  C   UNK N   1      89.195  12.762  38.660  0.00  0.00     0.304 C 
BRANCH  18  19
HETATM   19  N   UNK N   1      90.564  13.160  38.318  0.00  0.00     0.094 N 
HETATM   20  H   UNK N   1      90.925  13.752  39.072  0.00  0.00     0.317 HD
BRANCH  19  21
HETATM   21  C   UNK N   1      91.514  12.072  38.032  0.00  0.00     0.147 C 
HETATM   22  C   UNK N   1      90.949  11.092  36.989  0.00  0.00     0.048 C 
HETATM   23  C   UNK N   1      92.882  12.600  37.569  0.00  0.00     0.048 C 
HETATM   24  C   UNK N   1      91.706  11.314  39.358  0.00  0.00     0.048 C 
ENDBRANCH  19  21
ENDBRANCH  18  19
ENDBRANCH  15  18
ENDBRANCH  14  15
ENDBRANCH  13  14
ENDBRANCH   9  13
TORSDOF 7
ENDMDL
