MODEL 1
REMARK VINA RESULT:      -7.5      0.000      0.000
REMARK  8 active torsions:
REMARK  status: ('A' for Active; 'I' for Inactive)
REMARK    1  A    between atoms: C_7  and  O_8 
REMARK    2  A    between atoms: O_8  and  C_9 
REMARK    3  A    between atoms: C_9  and  C_10 
REMARK    4  A    between atoms: C_10  and  O_11 
REMARK    5  A    between atoms: C_10  and  C_12 
REMARK    6  A    between atoms: C_12  and  O_13 
REMARK    7  A    between atoms: O_13  and  C_14 
REMARK    8  A    between atoms: C_14  and  O_15 
ROOT
HETATM    1  C   UNK N   1      90.082  15.677  43.334  0.00  0.00     0.166 C 
ENDROOT
BRANCH   1   2
HETATM    2  C   UNK N   1      90.991  15.414  42.121  0.00  0.00     0.209 C 
BRANCH   2   3
HETATM    3  O   UNK N   1      90.307  15.678  40.891  0.00  0.00    -0.349 OA
BRANCH   3   4
HETATM    4  C   UNK N   1      90.091  14.652  40.015  0.00  0.00     0.069 A 
HETATM    5  C   UNK N   1      88.946  13.860  39.929  0.00  0.00     0.038 A 
HETATM    6  C   UNK N   1      88.868  12.839  38.973  0.00  0.00     0.026 A 
HETATM    7  C   UNK N   1      89.933  12.612  38.105  0.00  0.00     0.034 A 
HETATM    8 Cl   UNK N   1      89.830  11.357  36.934  0.00  0.00    -0.084 Cl
HETATM    9  C   UNK N   1      91.079  13.398  38.182  0.00  0.00     0.026 A 
HETATM   10  C   UNK N   1      91.153  14.414  39.136  0.00  0.00     0.038 A 
ENDBRANCH   3   4
ENDBRANCH   2   3
ENDBRANCH   1   2
BRANCH   1  11
HETATM   11  O   UNK N   1      88.805  16.169  42.900  0.00  0.00    -0.391 OA
HETATM   12  H   UNK N   1      88.956  17.044  42.498  0.00  0.00     0.210 HD
ENDBRANCH   1  11
BRANCH   1  13
HETATM   13  C   UNK N   1      90.696  16.698  44.295  0.00  0.00     0.213 C 
BRANCH  13  14
HETATM   14  O   UNK N   1      91.042  17.883  43.556  0.00  0.00    -0.314 OA
BRANCH  14  15
HETATM   15  C   UNK N   1      90.918  19.080  44.146  0.00  0.00     0.255 C 
HETATM   16  N   UNK N   1      91.348  19.468  45.284  0.00  0.00    -0.359 N 
HETATM   17  H   UNK N   1      91.835  18.715  45.769  0.00  0.00     0.160 HD
ATOM     18  HN  UNK N   1      91.221  20.407  45.660  1.00  0.00     0.160 HD
BRANCH  15  19
HETATM   19  O   UNK N   1      90.245  19.936  43.381  0.00  0.00    -0.327 OA
HETATM   20  H   UNK N   1      89.795  20.550  43.983  0.00  0.00     0.221 HD
ENDBRANCH  15  19
ENDBRANCH  14  15
ENDBRANCH  13  14
ENDBRANCH   1  13
TORSDOF 8
ENDMDL
MODEL 2
REMARK VINA RESULT:      -7.1      1.811      2.184
REMARK  8 active torsions:
REMARK  status: ('A' for Active; 'I' for Inactive)
REMARK    1  A    between atoms: C_7  and  O_8 
REMARK    2  A    between atoms: O_8  and  C_9 
REMARK    3  A    between atoms: C_9  and  C_10 
REMARK    4  A    between atoms: C_10  and  O_11 
REMARK    5  A    between atoms: C_10  and  C_12 
REMARK    6  A    between atoms: C_12  and  O_13 
REMARK    7  A    between atoms: O_13  and  C_14 
REMARK    8  A    between atoms: C_14  and  O_15 
ROOT
HETATM    1  C   UNK N   1      89.896  15.774  43.135  0.00  0.00     0.166 C 
ENDROOT
BRANCH   1   2
HETATM    2  C   UNK N   1      90.705  16.087  41.864  0.00  0.00     0.209 C 
BRANCH   2   3
HETATM    3  O   UNK N   1      90.244  15.315  40.750  0.00  0.00    -0.349 OA
BRANCH   3   4
HETATM    4  C   UNK N   1      91.137  14.555  40.050  0.00  0.00     0.069 A 
HETATM    5  C   UNK N   1      91.044  14.188  38.708  0.00  0.00     0.038 A 
HETATM    6  C   UNK N   1      92.045  13.401  38.124  0.00  0.00     0.026 A 
HETATM    7  C   UNK N   1      93.137  12.984  38.881  0.00  0.00     0.034 A 
HETATM    8 Cl   UNK N   1      94.361  12.018  38.157  0.00  0.00    -0.084 Cl
HETATM    9  C   UNK N   1      93.240  13.346  40.220  0.00  0.00     0.026 A 
HETATM   10  C   UNK N   1      92.241  14.130  40.799  0.00  0.00     0.038 A 
ENDBRANCH   3   4
ENDBRANCH   2   3
ENDBRANCH   1   2
BRANCH   1  11
HETATM   11  O   UNK N   1      88.538  16.216  42.981  0.00  0.00    -0.391 OA
HETATM   12  H   UNK N   1      88.548  16.962  42.352  0.00  0.00     0.210 HD
ENDBRANCH   1  11
BRANCH   1  13
HETATM   13  C   UNK N   1      90.490  16.454  44.371  0.00  0.00     0.213 C 
BRANCH  13  14
HETATM   14  O   UNK N   1      91.320  17.550  43.945  0.00  0.00    -0.314 OA
BRANCH  14  15
HETATM   15  C   UNK N   1      90.938  18.804  44.227  0.00  0.00     0.255 C 
HETATM   16  N   UNK N   1      90.398  19.674  43.463  0.00  0.00    -0.359 N 
HETATM   17  H   UNK N   1      90.276  19.310  42.520  0.00  0.00     0.160 HD
ATOM     18  HN  UNK N   1      90.125  20.611  43.760  1.00  0.00     0.160 HD
BRANCH  15  19
HETATM   19  O   UNK N   1      91.183  19.117  45.496  0.00  0.00    -0.327 OA
HETATM   20  H   UNK N   1      91.739  18.406  45.853  0.00  0.00     0.221 HD
ENDBRANCH  15  19
ENDBRANCH  14  15
ENDBRANCH  13  14
ENDBRANCH   1  13
TORSDOF 8
ENDMDL
MODEL 3
REMARK VINA RESULT:      -6.4      4.527      5.441
REMARK  8 active torsions:
REMARK  status: ('A' for Active; 'I' for Inactive)
REMARK    1  A    between atoms: C_7  and  O_8 
REMARK    2  A    between atoms: O_8  and  C_9 
REMARK    3  A    between atoms: C_9  and  C_10 
REMARK    4  A    between atoms: C_10  and  O_11 
REMARK    5  A    between atoms: C_10  and  C_12 
REMARK    6  A    between atoms: C_12  and  O_13 
REMARK    7  A    between atoms: O_13  and  C_14 
REMARK    8  A    between atoms: C_14  and  O_15 
ROOT
HETATM    1  C   UNK N   1      90.565  15.133  45.096  0.00  0.00     0.166 C 
ENDROOT
BRANCH   1   2
HETATM    2  C   UNK N   1      89.262  14.317  45.075  0.00  0.00     0.209 C 
BRANCH   2   3
HETATM    3  O   UNK N   1      88.130  15.150  44.802  0.00  0.00    -0.349 OA
BRANCH   3   4
HETATM    4  C   UNK N   1      86.928  14.569  44.517  0.00  0.00     0.069 A 
HETATM    5  C   UNK N   1      86.707  13.497  43.651  0.00  0.00     0.038 A 
HETATM    6  C   UNK N   1      85.410  13.006  43.458  0.00  0.00     0.026 A 
HETATM    7  C   UNK N   1      84.336  13.584  44.131  0.00  0.00     0.034 A 
HETATM    8 Cl   UNK N   1      82.746  12.975  43.888  0.00  0.00    -0.084 Cl
HETATM    9  C   UNK N   1      84.546  14.652  44.997  0.00  0.00     0.026 A 
HETATM   10  C   UNK N   1      85.840  15.140  45.187  0.00  0.00     0.038 A 
ENDBRANCH   3   4
ENDBRANCH   2   3
ENDBRANCH   1   2
BRANCH   1  11
HETATM   11  O   UNK N   1      90.843  15.592  46.428  0.00  0.00    -0.391 OA
HETATM   12  H   UNK N   1      90.750  14.823  47.021  0.00  0.00     0.210 HD
ENDBRANCH   1  11
BRANCH   1  13
HETATM   13  C   UNK N   1      90.492  16.349  44.169  0.00  0.00     0.213 C 
BRANCH  13  14
HETATM   14  O   UNK N   1      91.016  17.495  44.863  0.00  0.00    -0.314 OA
BRANCH  14  15
HETATM   15  C   UNK N   1      91.300  18.606  44.167  0.00  0.00     0.255 C 
HETATM   16  N   UNK N   1      90.517  19.534  43.773  0.00  0.00    -0.359 N 
HETATM   17  H   UNK N   1      89.553  19.342  44.044  0.00  0.00     0.160 HD
ATOM     18  HN  UNK N   1      90.815  20.359  43.254  1.00  0.00     0.160 HD
BRANCH  15  19
HETATM   19  O   UNK N   1      92.598  18.689  43.888  0.00  0.00    -0.327 OA
HETATM   20  H   UNK N   1      92.913  19.518  44.282  0.00  0.00     0.221 HD
ENDBRANCH  15  19
ENDBRANCH  14  15
ENDBRANCH  13  14
ENDBRANCH   1  13
TORSDOF 8
ENDMDL
MODEL 4
REMARK VINA RESULT:      -5.9     35.464     36.207
REMARK  8 active torsions:
REMARK  status: ('A' for Active; 'I' for Inactive)
REMARK    1  A    between atoms: C_7  and  O_8 
REMARK    2  A    between atoms: O_8  and  C_9 
REMARK    3  A    between atoms: C_9  and  C_10 
REMARK    4  A    between atoms: C_10  and  O_11 
REMARK    5  A    between atoms: C_10  and  C_12 
REMARK    6  A    between atoms: C_12  and  O_13 
REMARK    7  A    between atoms: O_13  and  C_14 
REMARK    8  A    between atoms: C_14  and  O_15 
ROOT
HETATM    1  C   UNK N   1      81.339  39.016  15.675  0.00  0.00     0.166 C 
ENDROOT
BRANCH   1   2
HETATM    2  C   UNK N   1      82.794  38.840  16.143  0.00  0.00     0.209 C 
BRANCH   2   3
HETATM    3  O   UNK N   1      83.257  37.506  15.911  0.00  0.00    -0.349 OA
BRANCH   3   4
HETATM    4  C   UNK N   1      84.329  37.306  15.088  0.00  0.00     0.069 A 
HETATM    5  C   UNK N   1      84.392  36.431  14.003  0.00  0.00     0.038 A 
HETATM    6  C   UNK N   1      85.566  36.334  13.246  0.00  0.00     0.026 A 
HETATM    7  C   UNK N   1      86.674  37.112  13.573  0.00  0.00     0.034 A 
HETATM    8 Cl   UNK N   1      88.112  36.987  12.639  0.00  0.00    -0.084 Cl
HETATM    9  C   UNK N   1      86.621  37.988  14.652  0.00  0.00     0.026 A 
HETATM   10  C   UNK N   1      85.449  38.082  15.405  0.00  0.00     0.038 A 
ENDBRANCH   3   4
ENDBRANCH   2   3
ENDBRANCH   1   2
BRANCH   1  11
HETATM   11  O   UNK N   1      80.770  37.743  15.331  0.00  0.00    -0.391 OA
HETATM   12  H   UNK N   1      79.960  37.920  14.818  0.00  0.00     0.210 HD
ENDBRANCH   1  11
BRANCH   1  13
HETATM   13  C   UNK N   1      81.240  39.937  14.456  0.00  0.00     0.213 C 
BRANCH  13  14
HETATM   14  O   UNK N   1      82.236  39.545  13.494  0.00  0.00    -0.314 OA
BRANCH  14  15
HETATM   15  C   UNK N   1      81.852  38.906  12.379  0.00  0.00     0.255 C 
HETATM   16  N   UNK N   1      81.560  37.675  12.215  0.00  0.00    -0.359 N 
HETATM   17  H   UNK N   1      81.663  37.153  13.084  0.00  0.00     0.160 HD
ATOM     18  HN  UNK N   1      81.262  37.266  11.329  1.00  0.00     0.160 HD
BRANCH  15  19
HETATM   19  O   UNK N   1      81.783  39.735  11.341  0.00  0.00    -0.327 OA
HETATM   20  H   UNK N   1      81.710  39.179  10.549  0.00  0.00     0.221 HD
ENDBRANCH  15  19
ENDBRANCH  14  15
ENDBRANCH  13  14
ENDBRANCH   1  13
TORSDOF 8
ENDMDL
MODEL 5
REMARK VINA RESULT:      -5.8      5.050      6.293
REMARK  8 active torsions:
REMARK  status: ('A' for Active; 'I' for Inactive)
REMARK    1  A    between atoms: C_7  and  O_8 
REMARK    2  A    between atoms: O_8  and  C_9 
REMARK    3  A    between atoms: C_9  and  C_10 
REMARK    4  A    between atoms: C_10  and  O_11 
REMARK    5  A    between atoms: C_10  and  C_12 
REMARK    6  A    between atoms: C_12  and  O_13 
REMARK    7  A    between atoms: O_13  and  C_14 
REMARK    8  A    between atoms: C_14  and  O_15 
ROOT
HETATM    1  C   UNK N   1      88.558  15.200  44.123  0.00  0.00     0.166 C 
ENDROOT
BRANCH   1   2
HETATM    2  C   UNK N   1      87.704  14.241  44.970  0.00  0.00     0.209 C 
BRANCH   2   3
HETATM    3  O   UNK N   1      86.640  14.936  45.629  0.00  0.00    -0.349 OA
BRANCH   3   4
HETATM    4  C   UNK N   1      85.404  14.969  45.048  0.00  0.00     0.069 A 
HETATM    5  C   UNK N   1      84.750  13.905  44.427  0.00  0.00     0.038 A 
HETATM    6  C   UNK N   1      83.477  14.090  43.873  0.00  0.00     0.026 A 
HETATM    7  C   UNK N   1      82.859  15.337  43.942  0.00  0.00     0.034 A 
HETATM    8 Cl   UNK N   1      81.297  15.556  43.260  0.00  0.00    -0.084 Cl
HETATM    9  C   UNK N   1      83.504  16.404  44.561  0.00  0.00     0.026 A 
HETATM   10  C   UNK N   1      84.772  16.216  45.111  0.00  0.00     0.038 A 
ENDBRANCH   3   4
ENDBRANCH   2   3
ENDBRANCH   1   2
BRANCH   1  11
HETATM   11  O   UNK N   1      88.413  14.893  42.728  0.00  0.00    -0.391 OA
HETATM   12  H   UNK N   1      89.203  14.387  42.462  0.00  0.00     0.210 HD
ENDBRANCH   1  11
BRANCH   1  13
HETATM   13  C   UNK N   1      90.043  15.114  44.488  0.00  0.00     0.213 C 
BRANCH  13  14
HETATM   14  O   UNK N   1      90.480  16.400  44.964  0.00  0.00    -0.314 OA
BRANCH  14  15
HETATM   15  C   UNK N   1      91.235  17.169  44.166  0.00  0.00     0.255 C 
HETATM   16  N   UNK N   1      92.501  17.161  44.001  0.00  0.00    -0.359 N 
HETATM   17  H   UNK N   1      92.945  16.461  44.592  0.00  0.00     0.160 HD
ATOM     18  HN  UNK N   1      93.003  17.777  43.361  1.00  0.00     0.160 HD
BRANCH  15  19
HETATM   19  O   UNK N   1      90.495  18.035  43.478  0.00  0.00    -0.327 OA
HETATM   20  H   UNK N   1      90.093  17.536  42.749  0.00  0.00     0.221 HD
ENDBRANCH  15  19
ENDBRANCH  14  15
ENDBRANCH  13  14
ENDBRANCH   1  13
TORSDOF 8
ENDMDL
MODEL 6
REMARK VINA RESULT:      -5.8     34.903     35.580
REMARK  8 active torsions:
REMARK  status: ('A' for Active; 'I' for Inactive)
REMARK    1  A    between atoms: C_7  and  O_8 
REMARK    2  A    between atoms: O_8  and  C_9 
REMARK    3  A    between atoms: C_9  and  C_10 
REMARK    4  A    between atoms: C_10  and  O_11 
REMARK    5  A    between atoms: C_10  and  C_12 
REMARK    6  A    between atoms: C_12  and  O_13 
REMARK    7  A    between atoms: O_13  and  C_14 
REMARK    8  A    between atoms: C_14  and  O_15 
ROOT
HETATM    1  C   UNK N   1      84.210  40.169  16.597  0.00  0.00     0.166 C 
ENDROOT
BRANCH   1   2
HETATM    2  C   UNK N   1      85.332  39.118  16.543  0.00  0.00     0.209 C 
BRANCH   2   3
HETATM    3  O   UNK N   1      84.841  37.855  16.084  0.00  0.00    -0.349 OA
BRANCH   3   4
HETATM    4  C   UNK N   1      85.225  37.396  14.856  0.00  0.00     0.069 A 
HETATM    5  C   UNK N   1      84.484  36.575  14.006  0.00  0.00     0.038 A 
HETATM    6  C   UNK N   1      85.013  36.184  12.769  0.00  0.00     0.026 A 
HETATM    7  C   UNK N   1      86.280  36.615  12.383  0.00  0.00     0.034 A 
HETATM    8 Cl   UNK N   1      86.922  36.132  10.864  0.00  0.00    -0.084 Cl
HETATM    9  C   UNK N   1      87.026  37.436  13.224  0.00  0.00     0.026 A 
HETATM   10  C   UNK N   1      86.496  37.822  14.456  0.00  0.00     0.038 A 
ENDBRANCH   3   4
ENDBRANCH   2   3
ENDBRANCH   1   2
BRANCH   1  11
HETATM   11  O   UNK N   1      84.441  41.088  17.676  0.00  0.00    -0.391 OA
HETATM   12  H   UNK N   1      84.938  41.842  17.308  0.00  0.00     0.210 HD
ENDBRANCH   1  11
BRANCH   1  13
HETATM   13  C   UNK N   1      82.835  39.524  16.795  0.00  0.00     0.213 C 
BRANCH  13  14
HETATM   14  O   UNK N   1      82.002  39.852  15.669  0.00  0.00    -0.314 OA
BRANCH  14  15
HETATM   15  C   UNK N   1      81.551  38.865  14.881  0.00  0.00     0.255 C 
HETATM   16  N   UNK N   1      81.492  38.812  13.607  0.00  0.00    -0.359 N 
HETATM   17  H   UNK N   1      81.839  39.673  13.186  0.00  0.00     0.160 HD
ATOM     18  HN  UNK N   1      81.144  38.013  13.078  1.00  0.00     0.160 HD
BRANCH  15  19
HETATM   19  O   UNK N   1      81.126  37.825  15.594  0.00  0.00    -0.327 OA
HETATM   20  H   UNK N   1      81.606  37.049  15.264  0.00  0.00     0.221 HD
ENDBRANCH  15  19
ENDBRANCH  14  15
ENDBRANCH  13  14
ENDBRANCH   1  13
TORSDOF 8
ENDMDL
MODEL 7
REMARK VINA RESULT:      -5.7     18.780     21.240
REMARK  8 active torsions:
REMARK  status: ('A' for Active; 'I' for Inactive)
REMARK    1  A    between atoms: C_7  and  O_8 
REMARK    2  A    between atoms: O_8  and  C_9 
REMARK    3  A    between atoms: C_9  and  C_10 
REMARK    4  A    between atoms: C_10  and  O_11 
REMARK    5  A    between atoms: C_10  and  C_12 
REMARK    6  A    between atoms: C_12  and  O_13 
REMARK    7  A    between atoms: O_13  and  C_14 
REMARK    8  A    between atoms: C_14  and  O_15 
ROOT
HETATM    1  C   UNK N   1      86.747  -1.009  26.700  0.00  0.00     0.166 C 
ENDROOT
BRANCH   1   2
HETATM    2  C   UNK N   1      88.094  -0.404  27.131  0.00  0.00     0.209 C 
BRANCH   2   3
HETATM    3  O   UNK N   1      88.063   1.027  27.078  0.00  0.00    -0.349 OA
BRANCH   3   4
HETATM    4  C   UNK N   1      87.880   1.732  28.234  0.00  0.00     0.069 A 
HETATM    5  C   UNK N   1      88.766   1.813  29.308  0.00  0.00     0.038 A 
HETATM    6  C   UNK N   1      88.439   2.581  30.432  0.00  0.00     0.026 A 
HETATM    7  C   UNK N   1      87.229   3.268  30.482  0.00  0.00     0.034 A 
HETATM    8 Cl   UNK N   1      86.834   4.208  31.865  0.00  0.00    -0.084 Cl
HETATM    9  C   UNK N   1      86.338   3.194  29.415  0.00  0.00     0.026 A 
HETATM   10  C   UNK N   1      86.667   2.427  28.296  0.00  0.00     0.038 A 
ENDBRANCH   3   4
ENDBRANCH   2   3
ENDBRANCH   1   2
BRANCH   1  11
HETATM   11  O   UNK N   1      86.682  -2.393  27.074  0.00  0.00    -0.391 OA
HETATM   12  H   UNK N   1      85.761  -2.684  26.940  0.00  0.00     0.210 HD
ENDBRANCH   1  11
BRANCH   1  13
HETATM   13  C   UNK N   1      86.532  -0.904  25.188  0.00  0.00     0.213 C 
BRANCH  13  14
HETATM   14  O   UNK N   1      86.019   0.405  24.880  0.00  0.00    -0.314 OA
BRANCH  14  15
HETATM   15  C   UNK N   1      86.602   1.123  23.910  0.00  0.00     0.255 C 
HETATM   16  N   UNK N   1      86.338   1.156  22.661  0.00  0.00    -0.359 N 
HETATM   17  H   UNK N   1      85.578   0.519  22.429  0.00  0.00     0.160 HD
ATOM     18  HN  UNK N   1      86.824   1.744  21.984  1.00  0.00     0.160 HD
BRANCH  15  19
HETATM   19  O   UNK N   1      87.581   1.888  24.387  0.00  0.00    -0.327 OA
HETATM   20  H   UNK N   1      87.305   2.808  24.248  0.00  0.00     0.221 HD
ENDBRANCH  15  19
ENDBRANCH  14  15
ENDBRANCH  13  14
ENDBRANCH   1  13
TORSDOF 8
ENDMDL
MODEL 8
REMARK VINA RESULT:      -5.7     31.361     33.916
REMARK  8 active torsions:
REMARK  status: ('A' for Active; 'I' for Inactive)
REMARK    1  A    between atoms: C_7  and  O_8 
REMARK    2  A    between atoms: O_8  and  C_9 
REMARK    3  A    between atoms: C_9  and  C_10 
REMARK    4  A    between atoms: C_10  and  O_11 
REMARK    5  A    between atoms: C_10  and  C_12 
REMARK    6  A    between atoms: C_12  and  O_13 
REMARK    7  A    between atoms: O_13  and  C_14 
REMARK    8  A    between atoms: C_14  and  O_15 
ROOT
HETATM    1  C   UNK N   1      73.616   4.138  13.837  0.00  0.00     0.166 C 
ENDROOT
BRANCH   1   2
HETATM    2  C   UNK N   1      72.677   5.184  14.463  0.00  0.00     0.209 C 
BRANCH   2   3
HETATM    3  O   UNK N   1      73.167   5.631  15.731  0.00  0.00    -0.349 OA
BRANCH   3   4
HETATM    4  C   UNK N   1      74.269   6.436  15.774  0.00  0.00     0.069 A 
HETATM    5  C   UNK N   1      74.474   7.604  15.039  0.00  0.00     0.038 A 
HETATM    6  C   UNK N   1      75.663   8.330  15.190  0.00  0.00     0.026 A 
HETATM    7  C   UNK N   1      76.643   7.889  16.076  0.00  0.00     0.034 A 
HETATM    8 Cl   UNK N   1      78.099   8.785  16.255  0.00  0.00    -0.084 Cl
HETATM    9  C   UNK N   1      76.448   6.726  16.814  0.00  0.00     0.026 A 
HETATM   10  C   UNK N   1      75.262   6.005  16.660  0.00  0.00     0.038 A 
ENDBRANCH   3   4
ENDBRANCH   2   3
ENDBRANCH   1   2
BRANCH   1  11
HETATM   11  O   UNK N   1      74.252   4.678  12.669  0.00  0.00    -0.391 OA
HETATM   12  H   UNK N   1      73.680   4.469  11.908  0.00  0.00     0.210 HD
ENDBRANCH   1  11
BRANCH   1  13
HETATM   13  C   UNK N   1      72.867   2.865  13.438  0.00  0.00     0.213 C 
BRANCH  13  14
HETATM   14  O   UNK N   1      72.470   2.972  12.059  0.00  0.00    -0.314 OA
BRANCH  14  15
HETATM   15  C   UNK N   1      72.649   1.921  11.245  0.00  0.00     0.255 C 
HETATM   16  N   UNK N   1      73.052   0.742  11.525  0.00  0.00    -0.359 N 
HETATM   17  H   UNK N   1      73.263   0.652  12.518  0.00  0.00     0.160 HD
ATOM     18  HN  UNK N   1      73.151  -0.011  10.844  1.00  0.00     0.160 HD
BRANCH  15  19
HETATM   19  O   UNK N   1      72.340   2.219   9.986  0.00  0.00    -0.327 OA
HETATM   20  H   UNK N   1      72.002   3.129   9.992  0.00  0.00     0.221 HD
ENDBRANCH  15  19
ENDBRANCH  14  15
ENDBRANCH  13  14
ENDBRANCH   1  13
TORSDOF 8
ENDMDL
MODEL 9
REMARK VINA RESULT:      -5.5     28.804     30.827
REMARK  8 active torsions:
REMARK  status: ('A' for Active; 'I' for Inactive)
REMARK    1  A    between atoms: C_7  and  O_8 
REMARK    2  A    between atoms: O_8  and  C_9 
REMARK    3  A    between atoms: C_9  and  C_10 
REMARK    4  A    between atoms: C_10  and  O_11 
REMARK    5  A    between atoms: C_10  and  C_12 
REMARK    6  A    between atoms: C_12  and  O_13 
REMARK    7  A    between atoms: O_13  and  C_14 
REMARK    8  A    between atoms: C_14  and  O_15 
ROOT
HETATM    1  C   UNK N   1      75.687   7.327  14.785  0.00  0.00     0.166 C 
ENDROOT
BRANCH   1   2
HETATM    2  C   UNK N   1      76.492   8.300  15.664  0.00  0.00     0.209 C 
BRANCH   2   3
HETATM    3  O   UNK N   1      77.890   8.238  15.362  0.00  0.00    -0.349 OA
BRANCH   3   4
HETATM    4  C   UNK N   1      78.671   7.325  16.010  0.00  0.00     0.069 A 
HETATM    5  C   UNK N   1      78.621   7.000  17.366  0.00  0.00     0.038 A 
HETATM    6  C   UNK N   1      79.492   6.036  17.890  0.00  0.00     0.026 A 
HETATM    7  C   UNK N   1      80.410   5.397  17.059  0.00  0.00     0.034 A 
HETATM    8 Cl   UNK N   1      81.475   4.215  17.710  0.00  0.00    -0.084 Cl
HETATM    9  C   UNK N   1      80.466   5.714  15.705  0.00  0.00     0.026 A 
HETATM   10  C   UNK N   1      79.598   6.675  15.187  0.00  0.00     0.038 A 
ENDBRANCH   3   4
ENDBRANCH   2   3
ENDBRANCH   1   2
BRANCH   1  11
HETATM   11  O   UNK N   1      75.661   7.790  13.426  0.00  0.00    -0.391 OA
HETATM   12  H   UNK N   1      74.871   7.402  13.005  0.00  0.00     0.210 HD
ENDBRANCH   1  11
BRANCH   1  13
HETATM   13  C   UNK N   1      74.244   7.177  15.274  0.00  0.00     0.213 C 
BRANCH  13  14
HETATM   14  O   UNK N   1      73.579   6.189  14.466  0.00  0.00    -0.314 OA
BRANCH  14  15
HETATM   15  C   UNK N   1      72.668   5.386  15.034  0.00  0.00     0.255 C 
HETATM   16  N   UNK N   1      71.806   4.625  14.480  0.00  0.00    -0.359 N 
HETATM   17  H   UNK N   1      71.857   4.689  13.464  0.00  0.00     0.160 HD
ATOM     18  HN  UNK N   1      71.150   4.030  14.987  1.00  0.00     0.160 HD
BRANCH  15  19
HETATM   19  O   UNK N   1      72.733   5.436  16.362  0.00  0.00    -0.327 OA
HETATM   20  H   UNK N   1      72.941   4.537  16.662  0.00  0.00     0.221 HD
ENDBRANCH  15  19
ENDBRANCH  14  15
ENDBRANCH  13  14
ENDBRANCH   1  13
TORSDOF 8
ENDMDL
