MODEL 1
REMARK VINA RESULT:      -6.7      0.000      0.000
REMARK  4 active torsions:
REMARK  status: ('A' for Active; 'I' for Inactive)
REMARK    1  A    between atoms: C_7  and  S_8 
REMARK    2  A    between atoms: S_8  and  N_11 
REMARK       I    between atoms: N_11  and  C_12 
REMARK       I    between atoms: C_12  and  N_14 
REMARK    3  A    between atoms: N_14  and  C_15 
REMARK    4  A    between atoms: C_15  and  C_16 
ROOT
HETATM    1  S   UNK N   1      80.060  22.569  38.238  0.00  0.00     0.266 S 
HETATM    2  O   UNK N   1      79.665  21.333  37.592  0.00  0.00    -0.200 OA
HETATM    3  O   UNK N   1      79.207  23.733  38.180  0.00  0.00    -0.200 OA
ENDROOT
BRANCH   1   4
HETATM    4  C   UNK N   1      80.409  22.182  39.937  0.00  0.00     0.080 A 
HETATM    5  C   UNK N   1      81.099  21.006  40.250  0.00  0.00     0.027 A 
HETATM    6  C   UNK N   1      81.345  20.688  41.587  0.00  0.00     0.025 A 
HETATM    7  C   UNK N   1      80.893  21.538  42.599  0.00  0.00     0.034 A 
HETATM    8 Cl   UNK N   1      81.202  21.142  44.244  0.00  0.00    -0.084 Cl
HETATM    9  C   UNK N   1      80.191  22.702  42.286  0.00  0.00     0.025 A 
HETATM   10  C   UNK N   1      79.940  23.023  40.950  0.00  0.00     0.027 A 
ENDBRANCH   1   4
BRANCH   1  11
HETATM   11  N   UNK N   1      81.551  22.931  37.605  0.00  0.00    -0.232 N 
HETATM   12  C   UNK N   1      82.248  24.102  37.838  0.00  0.00     0.329 C 
HETATM   13  O   UNK N   1      81.858  24.984  38.583  0.00  0.00    -0.246 OA
HETATM   14  N   UNK N   1      83.430  24.143  37.159  0.00  0.00    -0.342 N 
HETATM   15  H   UNK N   1      83.679  23.379  36.552  0.00  0.00     0.164 HD
HETATM   16  H   UNK N   1      81.928  22.190  37.032  0.00  0.00     0.183 HD
BRANCH  14  17
HETATM   17  C   UNK N   1      84.335  25.269  37.263  0.00  0.00     0.124 C 
BRANCH  17  18
HETATM   18  C   UNK N   1      85.215  25.164  38.506  0.00  0.00     0.015 C 
HETATM   19  C   UNK N   1      86.039  23.889  38.498  0.00  0.00     0.006 C 
ENDBRANCH  17  18
ENDBRANCH  14  17
ENDBRANCH   1  11
TORSDOF 4
ENDMDL
MODEL 2
REMARK VINA RESULT:      -6.6     10.864     12.497
REMARK  4 active torsions:
REMARK  status: ('A' for Active; 'I' for Inactive)
REMARK    1  A    between atoms: C_7  and  S_8 
REMARK    2  A    between atoms: S_8  and  N_11 
REMARK       I    between atoms: N_11  and  C_12 
REMARK       I    between atoms: C_12  and  N_14 
REMARK    3  A    between atoms: N_14  and  C_15 
REMARK    4  A    between atoms: C_15  and  C_16 
ROOT
HETATM    1  S   UNK N   1      88.663  14.325  44.294  0.00  0.00     0.266 S 
HETATM    2  O   UNK N   1      88.384  12.932  44.582  0.00  0.00    -0.200 OA
HETATM    3  O   UNK N   1      89.437  15.126  45.215  0.00  0.00    -0.200 OA
ENDROOT
BRANCH   1   4
HETATM    4  C   UNK N   1      89.417  14.385  42.687  0.00  0.00     0.080 A 
HETATM    5  C   UNK N   1      90.750  14.793  42.564  0.00  0.00     0.027 A 
HETATM    6  C   UNK N   1      91.332  14.870  41.297  0.00  0.00     0.025 A 
HETATM    7  C   UNK N   1      90.579  14.550  40.166  0.00  0.00     0.034 A 
HETATM    8 Cl   UNK N   1      91.302  14.643  38.607  0.00  0.00    -0.084 Cl
HETATM    9  C   UNK N   1      89.245  14.160  40.288  0.00  0.00     0.025 A 
HETATM   10  C   UNK N   1      88.657  14.083  41.553  0.00  0.00     0.027 A 
ENDBRANCH   1   4
BRANCH   1  11
HETATM   11  N   UNK N   1      87.176  15.024  44.055  0.00  0.00    -0.232 N 
HETATM   12  C   UNK N   1      86.191  15.145  45.018  0.00  0.00     0.329 C 
HETATM   13  O   UNK N   1      86.331  14.790  46.176  0.00  0.00    -0.246 OA
HETATM   14  N   UNK N   1      85.060  15.729  44.530  0.00  0.00    -0.342 N 
HETATM   15  H   UNK N   1      85.016  15.986  43.557  0.00  0.00     0.164 HD
HETATM   16  H   UNK N   1      87.055  15.385  43.120  0.00  0.00     0.183 HD
BRANCH  14  17
HETATM   17  C   UNK N   1      83.901  15.970  45.364  0.00  0.00     0.124 C 
BRANCH  17  18
HETATM   18  C   UNK N   1      83.944  17.363  45.988  0.00  0.00     0.015 C 
HETATM   19  C   UNK N   1      83.762  17.302  47.495  0.00  0.00     0.006 C 
ENDBRANCH  17  18
ENDBRANCH  14  17
ENDBRANCH   1  11
TORSDOF 4
ENDMDL
MODEL 3
REMARK VINA RESULT:      -6.5     12.582     13.645
REMARK  4 active torsions:
REMARK  status: ('A' for Active; 'I' for Inactive)
REMARK    1  A    between atoms: C_7  and  S_8 
REMARK    2  A    between atoms: S_8  and  N_11 
REMARK       I    between atoms: N_11  and  C_12 
REMARK       I    between atoms: C_12  and  N_14 
REMARK    3  A    between atoms: N_14  and  C_15 
REMARK    4  A    between atoms: C_15  and  C_16 
ROOT
HETATM    1  S   UNK N   1      91.047  16.923  44.239  0.00  0.00     0.266 S 
HETATM    2  O   UNK N   1      90.894  18.285  43.769  0.00  0.00    -0.200 OA
HETATM    3  O   UNK N   1      90.778  16.586  45.618  0.00  0.00    -0.200 OA
ENDROOT
BRANCH   1   4
HETATM    4  C   UNK N   1      90.061  15.892  43.181  0.00  0.00     0.080 A 
HETATM    5  C   UNK N   1      88.970  15.198  43.714  0.00  0.00     0.027 A 
HETATM    6  C   UNK N   1      88.214  14.363  42.888  0.00  0.00     0.025 A 
HETATM    7  C   UNK N   1      88.559  14.220  41.542  0.00  0.00     0.034 A 
HETATM    8 Cl   UNK N   1      87.623  13.192  40.528  0.00  0.00    -0.084 Cl
HETATM    9  C   UNK N   1      89.657  14.899  41.015  0.00  0.00     0.025 A 
HETATM   10  C   UNK N   1      90.417  15.733  41.838  0.00  0.00     0.027 A 
ENDBRANCH   1   4
BRANCH   1  11
HETATM   11  N   UNK N   1      92.606  16.503  43.851  0.00  0.00    -0.232 N 
HETATM   12  C   UNK N   1      93.152  15.244  44.013  0.00  0.00     0.329 C 
HETATM   13  O   UNK N   1      92.523  14.281  44.418  0.00  0.00    -0.246 OA
HETATM   14  N   UNK N   1      94.464  15.199  43.645  0.00  0.00    -0.342 N 
HETATM   15  H   UNK N   1      94.920  16.040  43.330  0.00  0.00     0.164 HD
HETATM   16  H   UNK N   1      93.134  17.267  43.454  0.00  0.00     0.183 HD
BRANCH  14  17
HETATM   17  C   UNK N   1      95.239  13.977  43.715  0.00  0.00     0.124 C 
BRANCH  17  18
HETATM   18  C   UNK N   1      95.560  13.439  42.323  0.00  0.00     0.015 C 
HETATM   19  C   UNK N   1      95.451  14.527  41.269  0.00  0.00     0.006 C 
ENDBRANCH  17  18
ENDBRANCH  14  17
ENDBRANCH   1  11
TORSDOF 4
ENDMDL
MODEL 4
REMARK VINA RESULT:      -6.4      9.875     10.509
REMARK  4 active torsions:
REMARK  status: ('A' for Active; 'I' for Inactive)
REMARK    1  A    between atoms: C_7  and  S_8 
REMARK    2  A    between atoms: S_8  and  N_11 
REMARK       I    between atoms: N_11  and  C_12 
REMARK       I    between atoms: C_12  and  N_14 
REMARK    3  A    between atoms: N_14  and  C_15 
REMARK    4  A    between atoms: C_15  and  C_16 
ROOT
HETATM    1  S   UNK N   1      86.252  14.442  44.939  0.00  0.00     0.266 S 
HETATM    2  O   UNK N   1      86.717  14.586  46.305  0.00  0.00    -0.200 OA
HETATM    3  O   UNK N   1      86.142  13.135  44.334  0.00  0.00    -0.200 OA
ENDROOT
BRANCH   1   4
HETATM    4  C   UNK N   1      84.686  15.273  44.831  0.00  0.00     0.080 A 
HETATM    5  C   UNK N   1      83.672  14.735  44.031  0.00  0.00     0.027 A 
HETATM    6  C   UNK N   1      82.452  15.405  43.922  0.00  0.00     0.025 A 
HETATM    7  C   UNK N   1      82.258  16.609  44.601  0.00  0.00     0.034 A 
HETATM    8 Cl   UNK N   1      80.751  17.430  44.466  0.00  0.00    -0.084 Cl
HETATM    9  C   UNK N   1      83.275  17.154  45.385  0.00  0.00     0.025 A 
HETATM   10  C   UNK N   1      84.498  16.488  45.496  0.00  0.00     0.027 A 
ENDBRANCH   1   4
BRANCH   1  11
HETATM   11  N   UNK N   1      87.265  15.397  44.035  0.00  0.00    -0.232 N 
HETATM   12  C   UNK N   1      88.639  15.258  43.969  0.00  0.00     0.329 C 
HETATM   13  O   UNK N   1      89.257  14.374  44.539  0.00  0.00    -0.246 OA
HETATM   14  N   UNK N   1      89.217  16.204  43.176  0.00  0.00    -0.342 N 
HETATM   15  H   UNK N   1      88.641  16.910  42.747  0.00  0.00     0.164 HD
HETATM   16  H   UNK N   1      86.774  16.100  43.501  0.00  0.00     0.183 HD
BRANCH  14  17
HETATM   17  C   UNK N   1      90.647  16.244  42.948  0.00  0.00     0.124 C 
BRANCH  17  18
HETATM   18  C   UNK N   1      91.365  17.017  44.051  0.00  0.00     0.015 C 
HETATM   19  C   UNK N   1      91.028  18.497  44.003  0.00  0.00     0.006 C 
ENDBRANCH  17  18
ENDBRANCH  14  17
ENDBRANCH   1  11
TORSDOF 4
ENDMDL
MODEL 5
REMARK VINA RESULT:      -6.2      4.129      6.450
REMARK  4 active torsions:
REMARK  status: ('A' for Active; 'I' for Inactive)
REMARK    1  A    between atoms: C_7  and  S_8 
REMARK    2  A    between atoms: S_8  and  N_11 
REMARK       I    between atoms: N_11  and  C_12 
REMARK       I    between atoms: C_12  and  N_14 
REMARK    3  A    between atoms: N_14  and  C_15 
REMARK    4  A    between atoms: C_15  and  C_16 
ROOT
HETATM    1  S   UNK N   1      83.046  25.760  37.320  0.00  0.00     0.266 S 
HETATM    2  O   UNK N   1      84.008  25.858  36.240  0.00  0.00    -0.200 OA
HETATM    3  O   UNK N   1      83.391  26.194  38.654  0.00  0.00    -0.200 OA
ENDROOT
BRANCH   1   4
HETATM    4  C   UNK N   1      81.577  26.607  36.790  0.00  0.00     0.080 A 
HETATM    5  C   UNK N   1      81.320  27.901  37.255  0.00  0.00     0.027 A 
HETATM    6  C   UNK N   1      80.150  28.554  36.862  0.00  0.00     0.025 A 
HETATM    7  C   UNK N   1      79.243  27.908  36.019  0.00  0.00     0.034 A 
HETATM    8 Cl   UNK N   1      77.804  28.718  35.536  0.00  0.00    -0.084 Cl
HETATM    9  C   UNK N   1      79.492  26.611  35.569  0.00  0.00     0.025 A 
HETATM   10  C   UNK N   1      80.660  25.953  35.961  0.00  0.00     0.027 A 
ENDBRANCH   1   4
BRANCH   1  11
HETATM   11  N   UNK N   1      82.589  24.165  37.349  0.00  0.00    -0.232 N 
HETATM   12  C   UNK N   1      81.684  23.614  38.238  0.00  0.00     0.329 C 
HETATM   13  O   UNK N   1      81.080  24.262  39.076  0.00  0.00    -0.246 OA
HETATM   14  N   UNK N   1      81.528  22.273  38.051  0.00  0.00    -0.342 N 
HETATM   15  H   UNK N   1      82.071  21.804  37.344  0.00  0.00     0.164 HD
HETATM   16  H   UNK N   1      83.026  23.615  36.623  0.00  0.00     0.183 HD
BRANCH  14  17
HETATM   17  C   UNK N   1      80.618  21.487  38.859  0.00  0.00     0.124 C 
BRANCH  17  18
HETATM   18  C   UNK N   1      81.294  20.989  40.135  0.00  0.00     0.015 C 
HETATM   19  C   UNK N   1      80.558  21.466  41.375  0.00  0.00     0.006 C 
ENDBRANCH  17  18
ENDBRANCH  14  17
ENDBRANCH   1  11
TORSDOF 4
ENDMDL
MODEL 6
REMARK VINA RESULT:      -6.2     11.510     13.234
REMARK  4 active torsions:
REMARK  status: ('A' for Active; 'I' for Inactive)
REMARK    1  A    between atoms: C_7  and  S_8 
REMARK    2  A    between atoms: S_8  and  N_11 
REMARK       I    between atoms: N_11  and  C_12 
REMARK       I    between atoms: C_12  and  N_14 
REMARK    3  A    between atoms: N_14  and  C_15 
REMARK    4  A    between atoms: C_15  and  C_16 
ROOT
HETATM    1  S   UNK N   1      90.273  15.367  43.326  0.00  0.00     0.266 S 
HETATM    2  O   UNK N   1      90.792  14.490  44.357  0.00  0.00    -0.200 OA
HETATM    3  O   UNK N   1      90.377  16.802  43.461  0.00  0.00    -0.200 OA
ENDROOT
BRANCH   1   4
HETATM    4  C   UNK N   1      91.017  14.867  41.793  0.00  0.00     0.080 A 
HETATM    5  C   UNK N   1      92.306  14.322  41.795  0.00  0.00     0.027 A 
HETATM    6  C   UNK N   1      92.901  13.958  40.586  0.00  0.00     0.025 A 
HETATM    7  C   UNK N   1      92.213  14.151  39.386  0.00  0.00     0.034 A 
HETATM    8 Cl   UNK N   1      92.950  13.698  37.899  0.00  0.00    -0.084 Cl
HETATM    9  C   UNK N   1      90.935  14.710  39.383  0.00  0.00     0.025 A 
HETATM   10  C   UNK N   1      90.335  15.078  40.590  0.00  0.00     0.027 A 
ENDBRANCH   1   4
BRANCH   1  11
HETATM   11  N   UNK N   1      88.681  14.933  43.149  0.00  0.00    -0.232 N 
HETATM   12  C   UNK N   1      87.803  14.691  44.189  0.00  0.00     0.329 C 
HETATM   13  O   UNK N   1      88.098  14.821  45.365  0.00  0.00    -0.246 OA
HETATM   14  N   UNK N   1      86.569  14.317  43.747  0.00  0.00    -0.342 N 
HETATM   15  H   UNK N   1      86.405  14.221  42.758  0.00  0.00     0.164 HD
HETATM   16  H   UNK N   1      88.391  14.879  42.183  0.00  0.00     0.183 HD
BRANCH  14  17
HETATM   17  C   UNK N   1      85.484  14.026  44.661  0.00  0.00     0.124 C 
BRANCH  17  18
HETATM   18  C   UNK N   1      84.339  15.023  44.502  0.00  0.00     0.015 C 
HETATM   19  C   UNK N   1      84.620  16.315  45.250  0.00  0.00     0.006 C 
ENDBRANCH  17  18
ENDBRANCH  14  17
ENDBRANCH   1  11
TORSDOF 4
ENDMDL
MODEL 7
REMARK VINA RESULT:      -6.1      9.262     10.254
REMARK  4 active torsions:
REMARK  status: ('A' for Active; 'I' for Inactive)
REMARK    1  A    between atoms: C_7  and  S_8 
REMARK    2  A    between atoms: S_8  and  N_11 
REMARK       I    between atoms: N_11  and  C_12 
REMARK       I    between atoms: C_12  and  N_14 
REMARK    3  A    between atoms: N_14  and  C_15 
REMARK    4  A    between atoms: C_15  and  C_16 
ROOT
HETATM    1  S   UNK N   1      85.098  14.995  45.501  0.00  0.00     0.266 S 
HETATM    2  O   UNK N   1      85.759  15.158  46.781  0.00  0.00    -0.200 OA
HETATM    3  O   UNK N   1      84.429  13.758  45.171  0.00  0.00    -0.200 OA
ENDROOT
BRANCH   1   4
HETATM    4  C   UNK N   1      83.956  16.344  45.327  0.00  0.00     0.080 A 
HETATM    5  C   UNK N   1      83.964  17.382  46.266  0.00  0.00     0.027 A 
HETATM    6  C   UNK N   1      83.044  18.426  46.145  0.00  0.00     0.025 A 
HETATM    7  C   UNK N   1      82.119  18.421  45.099  0.00  0.00     0.034 A 
HETATM    8 Cl   UNK N   1      80.991  19.711  44.954  0.00  0.00    -0.084 Cl
HETATM    9  C   UNK N   1      82.101  17.378  44.174  0.00  0.00     0.025 A 
HETATM   10  C   UNK N   1      83.018  16.330  44.291  0.00  0.00     0.027 A 
ENDBRANCH   1   4
BRANCH   1  11
HETATM   11  N   UNK N   1      86.265  15.323  44.367  0.00  0.00    -0.232 N 
HETATM   12  C   UNK N   1      87.604  14.997  44.488  0.00  0.00     0.329 C 
HETATM   13  O   UNK N   1      88.066  14.381  45.433  0.00  0.00    -0.246 OA
HETATM   14  N   UNK N   1      88.337  15.420  43.419  0.00  0.00    -0.342 N 
HETATM   15  H   UNK N   1      87.885  15.934  42.680  0.00  0.00     0.164 HD
HETATM   16  H   UNK N   1      85.899  15.778  43.543  0.00  0.00     0.183 HD
BRANCH  14  17
HETATM   17  C   UNK N   1      89.761  15.176  43.322  0.00  0.00     0.124 C 
BRANCH  17  18
HETATM   18  C   UNK N   1      90.560  16.466  43.489  0.00  0.00     0.015 C 
HETATM   19  C   UNK N   1      90.967  16.685  44.936  0.00  0.00     0.006 C 
ENDBRANCH  17  18
ENDBRANCH  14  17
ENDBRANCH   1  11
TORSDOF 4
ENDMDL
MODEL 8
REMARK VINA RESULT:      -5.9      4.864      6.850
REMARK  4 active torsions:
REMARK  status: ('A' for Active; 'I' for Inactive)
REMARK    1  A    between atoms: C_7  and  S_8 
REMARK    2  A    between atoms: S_8  and  N_11 
REMARK       I    between atoms: N_11  and  C_12 
REMARK       I    between atoms: C_12  and  N_14 
REMARK    3  A    between atoms: N_14  and  C_15 
REMARK    4  A    between atoms: C_15  and  C_16 
ROOT
HETATM    1  S   UNK N   1      80.901  20.256  41.972  0.00  0.00     0.266 S 
HETATM    2  O   UNK N   1      79.643  19.623  42.314  0.00  0.00    -0.200 OA
HETATM    3  O   UNK N   1      81.104  20.827  40.661  0.00  0.00    -0.200 OA
ENDROOT
BRANCH   1   4
HETATM    4  C   UNK N   1      81.216  21.494  43.207  0.00  0.00     0.080 A 
HETATM    5  C   UNK N   1      80.473  22.680  43.200  0.00  0.00     0.027 A 
HETATM    6  C   UNK N   1      80.743  23.665  44.152  0.00  0.00     0.025 A 
HETATM    7  C   UNK N   1      81.755  23.465  45.094  0.00  0.00     0.034 A 
HETATM    8 Cl   UNK N   1      82.081  24.681  46.266  0.00  0.00    -0.084 Cl
HETATM    9  C   UNK N   1      82.505  22.289  45.088  0.00  0.00     0.025 A 
HETATM   10  C   UNK N   1      82.242  21.301  44.137  0.00  0.00     0.027 A 
ENDBRANCH   1   4
BRANCH   1  11
HETATM   11  N   UNK N   1      82.060  19.105  42.269  0.00  0.00    -0.232 N 
HETATM   12  C   UNK N   1      81.959  18.102  43.216  0.00  0.00     0.329 C 
HETATM   13  O   UNK N   1      80.972  17.926  43.910  0.00  0.00    -0.246 OA
HETATM   14  N   UNK N   1      83.076  17.323  43.265  0.00  0.00    -0.342 N 
HETATM   15  H   UNK N   1      83.857  17.539  42.666  0.00  0.00     0.164 HD
HETATM   16  H   UNK N   1      82.864  19.188  41.664  0.00  0.00     0.183 HD
BRANCH  14  17
HETATM   17  C   UNK N   1      83.190  16.201  44.174  0.00  0.00     0.124 C 
BRANCH  17  18
HETATM   18  C   UNK N   1      84.187  16.489  45.293  0.00  0.00     0.015 C 
HETATM   19  C   UNK N   1      85.347  15.509  45.270  0.00  0.00     0.006 C 
ENDBRANCH  17  18
ENDBRANCH  14  17
ENDBRANCH   1  11
TORSDOF 4
ENDMDL
MODEL 9
REMARK VINA RESULT:      -5.9     25.613     27.490
REMARK  4 active torsions:
REMARK  status: ('A' for Active; 'I' for Inactive)
REMARK    1  A    between atoms: C_7  and  S_8 
REMARK    2  A    between atoms: S_8  and  N_11 
REMARK       I    between atoms: N_11  and  C_12 
REMARK       I    between atoms: C_12  and  N_14 
REMARK    3  A    between atoms: N_14  and  C_15 
REMARK    4  A    between atoms: C_15  and  C_16 
ROOT
HETATM    1  S   UNK N   1     100.560   8.205  25.300  0.00  0.00     0.266 S 
HETATM    2  O   UNK N   1     101.145   6.892  25.487  0.00  0.00    -0.200 OA
HETATM    3  O   UNK N   1     101.355   9.397  25.488  0.00  0.00    -0.200 OA
ENDROOT
BRANCH   1   4
HETATM    4  C   UNK N   1      99.841   8.230  23.676  0.00  0.00     0.080 A 
HETATM    5  C   UNK N   1      99.401   9.443  23.133  0.00  0.00     0.027 A 
HETATM    6  C   UNK N   1      98.807   9.456  21.870  0.00  0.00     0.025 A 
HETATM    7  C   UNK N   1      98.647   8.261  21.164  0.00  0.00     0.034 A 
HETATM    8 Cl   UNK N   1      97.917   8.284  19.606  0.00  0.00    -0.084 Cl
HETATM    9  C   UNK N   1      99.070   7.051  21.713  0.00  0.00     0.025 A 
HETATM   10  C   UNK N   1      99.663   7.032  22.978  0.00  0.00     0.027 A 
ENDBRANCH   1   4
BRANCH   1  11
HETATM   11  N   UNK N   1      99.245   8.241  26.311  0.00  0.00    -0.232 N 
HETATM   12  C   UNK N   1      99.306   8.278  27.692  0.00  0.00     0.329 C 
HETATM   13  O   UNK N   1     100.349   8.339  28.321  0.00  0.00    -0.246 OA
HETATM   14  N   UNK N   1      98.069   8.265  28.265  0.00  0.00    -0.342 N 
HETATM   15  H   UNK N   1      97.252   8.202  27.678  0.00  0.00     0.164 HD
HETATM   16  H   UNK N   1      98.365   8.255  25.816  0.00  0.00     0.183 HD
BRANCH  14  17
HETATM   17  C   UNK N   1      97.888   8.313  29.701  0.00  0.00     0.124 C 
BRANCH  17  18
HETATM   18  C   UNK N   1      96.452   8.673  30.070  0.00  0.00     0.015 C 
HETATM   19  C   UNK N   1      96.089   8.161  31.454  0.00  0.00     0.006 C 
ENDBRANCH  17  18
ENDBRANCH  14  17
ENDBRANCH   1  11
TORSDOF 4
ENDMDL
