MODEL 1
REMARK VINA RESULT:      -6.9      0.000      0.000
REMARK  5 active torsions:
REMARK  status: ('A' for Active; 'I' for Inactive)
REMARK    1  A    between atoms: S_1  and  C_2 
REMARK    2  A    between atoms: S_1  and  C_3 
REMARK    3  A    between atoms: C_2  and  C_4 
REMARK    4  A    between atoms: C_3  and  C_5 
REMARK    5  A    between atoms: C_5  and  N_9 
REMARK       I    between atoms: N_9  and  C_13 
REMARK       I    between atoms: C_13  and  N_14 
ROOT
HETATM    1  N   UNK N   1      90.075  16.608  42.813  0.00  0.00    -0.225 N 
HETATM    2  C   UNK N   1      90.619  16.642  44.069  0.00  0.00     0.682 C 
HETATM    3  N   UNK N   1      91.102  17.693  44.663  0.00  0.00    -0.126 N 
ATOM      4  HN  UNK N   1      91.490  17.625  45.604  1.00  0.00     0.197 HD
HETATM    5  N   UNK N   1      90.632  15.436  44.704  0.00  0.00    -0.230 N 
HETATM    6  C   UNK N   1      91.082  18.863  44.020  0.00  0.00     0.196 C 
HETATM    7  C   UNK N   1      91.186  15.228  46.021  0.00  0.00     0.165 C 
HETATM    8  N   UNK N   1      91.043  19.857  43.427  0.00  0.00    -0.171 NA
HETATM    9  H   UNK N   1      90.019  17.497  42.322  0.00  0.00     0.177 HD
HETATM   10  H   UNK N   1      90.164  14.645  44.293  0.00  0.00     0.177 HD
ENDROOT
BRANCH   1  11
HETATM   11  C   UNK N   1      89.600  15.459  42.064  0.00  0.00     0.148 C 
BRANCH  11  12
HETATM   12  C   UNK N   1      90.495  15.192  40.851  0.00  0.00     0.094 C 
BRANCH  12  13
HETATM   13  S   UNK N   1      91.992  14.245  41.277  0.00  0.00    -0.161 SA
BRANCH  13  14
HETATM   14  C   UNK N   1      92.693  14.026  39.605  0.00  0.00     0.133 C 
BRANCH  14  15
HETATM   15  C   UNK N   1      94.144  13.684  39.661  0.00  0.00     0.041 A 
HETATM   16  N   UNK N   1      95.023  14.507  40.332  0.00  0.00    -0.353 N 
HETATM   17  C   UNK N   1      96.203  13.950  40.202  0.00  0.00     0.180 A 
ATOM     18  HN  UNK N   1      94.802  15.371  40.828  1.00  0.00     0.166 HD
HETATM   19  N   UNK N   1      96.132  12.790  39.488  0.00  0.00    -0.354 N 
HETATM   20  C   UNK N   1      94.819  12.589  39.146  0.00  0.00     0.029 A 
HETATM   21  H   UNK N   1      96.911  12.191  39.257  0.00  0.00     0.166 HD
HETATM   22  C   UNK N   1      94.366  11.419  38.362  0.00  0.00     0.070 C 
ENDBRANCH  14  15
ENDBRANCH  13  14
ENDBRANCH  12  13
ENDBRANCH  11  12
ENDBRANCH   1  11
TORSDOF 5
ENDMDL
MODEL 2
REMARK VINA RESULT:      -6.8      1.511      2.191
REMARK  5 active torsions:
REMARK  status: ('A' for Active; 'I' for Inactive)
REMARK    1  A    between atoms: S_1  and  C_2 
REMARK    2  A    between atoms: S_1  and  C_3 
REMARK    3  A    between atoms: C_2  and  C_4 
REMARK    4  A    between atoms: C_3  and  C_5 
REMARK    5  A    between atoms: C_5  and  N_9 
REMARK       I    between atoms: N_9  and  C_13 
REMARK       I    between atoms: C_13  and  N_14 
ROOT
HETATM    1  N   UNK N   1      90.171  16.628  42.763  0.00  0.00    -0.225 N 
HETATM    2  C   UNK N   1      90.648  16.663  44.047  0.00  0.00     0.682 C 
HETATM    3  N   UNK N   1      91.075  17.718  44.674  0.00  0.00    -0.126 N 
ATOM      4  HN  UNK N   1      91.413  17.650  45.634  1.00  0.00     0.197 HD
HETATM    5  N   UNK N   1      90.652  15.451  44.673  0.00  0.00    -0.230 N 
HETATM    6  C   UNK N   1      91.064  18.892  44.039  0.00  0.00     0.196 C 
HETATM    7  C   UNK N   1      91.139  15.245  46.016  0.00  0.00     0.165 C 
HETATM    8  N   UNK N   1      91.036  19.891  43.452  0.00  0.00    -0.171 NA
HETATM    9  H   UNK N   1      90.123  17.519  42.276  0.00  0.00     0.177 HD
HETATM   10  H   UNK N   1      90.224  14.655  44.232  0.00  0.00     0.177 HD
ENDROOT
BRANCH   1  11
HETATM   11  C   UNK N   1      89.762  15.475  41.982  0.00  0.00     0.148 C 
BRANCH  11  12
HETATM   12  C   UNK N   1      90.820  15.125  40.932  0.00  0.00     0.094 C 
BRANCH  12  13
HETATM   13  S   UNK N   1      90.949  13.331  40.635  0.00  0.00    -0.161 SA
BRANCH  13  14
HETATM   14  C   UNK N   1      92.289  12.931  41.811  0.00  0.00     0.133 C 
BRANCH  14  15
HETATM   15  C   UNK N   1      93.525  13.714  41.517  0.00  0.00     0.041 A 
HETATM   16  N   UNK N   1      94.098  13.658  40.264  0.00  0.00    -0.353 N 
HETATM   17  C   UNK N   1      95.152  14.437  40.319  0.00  0.00     0.180 A 
ATOM     18  HN  UNK N   1      93.771  13.122  39.460  1.00  0.00     0.166 HD
HETATM   19  N   UNK N   1      95.284  15.012  41.548  0.00  0.00    -0.354 N 
HETATM   20  C   UNK N   1      94.242  14.579  42.328  0.00  0.00     0.029 A 
HETATM   21  H   UNK N   1      96.021  15.645  41.827  0.00  0.00     0.166 HD
HETATM   22  C   UNK N   1      94.063  15.003  43.734  0.00  0.00     0.070 C 
ENDBRANCH  14  15
ENDBRANCH  13  14
ENDBRANCH  12  13
ENDBRANCH  11  12
ENDBRANCH   1  11
TORSDOF 5
ENDMDL
MODEL 3
REMARK VINA RESULT:      -6.7     12.802     17.019
REMARK  5 active torsions:
REMARK  status: ('A' for Active; 'I' for Inactive)
REMARK    1  A    between atoms: S_1  and  C_2 
REMARK    2  A    between atoms: S_1  and  C_3 
REMARK    3  A    between atoms: C_2  and  C_4 
REMARK    4  A    between atoms: C_3  and  C_5 
REMARK    5  A    between atoms: C_5  and  N_9 
REMARK       I    between atoms: N_9  and  C_13 
REMARK       I    between atoms: C_13  and  N_14 
ROOT
HETATM    1  N   UNK N   1      84.052  26.692  38.499  0.00  0.00    -0.225 N 
HETATM    2  C   UNK N   1      84.513  25.441  38.187  0.00  0.00     0.682 C 
HETATM    3  N   UNK N   1      83.932  24.589  37.396  0.00  0.00    -0.126 N 
ATOM      4  HN  UNK N   1      84.349  23.675  37.221  1.00  0.00     0.197 HD
HETATM    5  N   UNK N   1      85.690  25.113  38.793  0.00  0.00    -0.230 N 
HETATM    6  C   UNK N   1      82.779  24.931  36.817  0.00  0.00     0.196 C 
HETATM    7  C   UNK N   1      86.345  23.837  38.635  0.00  0.00     0.165 C 
HETATM    8  N   UNK N   1      81.781  25.269  36.335  0.00  0.00    -0.171 NA
HETATM    9  H   UNK N   1      83.193  26.983  38.040  0.00  0.00     0.177 HD
HETATM   10  H   UNK N   1      86.196  25.807  39.318  0.00  0.00     0.177 HD
ENDROOT
BRANCH   1  11
HETATM   11  C   UNK N   1      84.607  27.653  39.436  0.00  0.00     0.148 C 
BRANCH  11  12
HETATM   12  C   UNK N   1      84.279  29.085  39.005  0.00  0.00     0.094 C 
BRANCH  12  13
HETATM   13  S   UNK N   1      84.813  30.326  40.228  0.00  0.00    -0.161 SA
BRANCH  13  14
HETATM   14  C   UNK N   1      84.479  29.395  41.764  0.00  0.00     0.133 C 
BRANCH  14  15
HETATM   15  C   UNK N   1      83.679  30.203  42.730  0.00  0.00     0.041 A 
HETATM   16  N   UNK N   1      83.787  31.578  42.736  0.00  0.00    -0.353 N 
HETATM   17  C   UNK N   1      82.978  31.994  43.681  0.00  0.00     0.180 A 
ATOM     18  HN  UNK N   1      84.374  32.153  42.132  1.00  0.00     0.166 HD
HETATM   19  N   UNK N   1      82.333  30.953  44.281  0.00  0.00    -0.354 N 
HETATM   20  C   UNK N   1      82.753  29.795  43.676  0.00  0.00     0.029 A 
HETATM   21  H   UNK N   1      81.667  31.028  45.037  0.00  0.00     0.166 HD
HETATM   22  C   UNK N   1      82.259  28.459  44.074  0.00  0.00     0.070 C 
ENDBRANCH  14  15
ENDBRANCH  13  14
ENDBRANCH  12  13
ENDBRANCH  11  12
ENDBRANCH   1  11
TORSDOF 5
ENDMDL
MODEL 4
REMARK VINA RESULT:      -6.6      2.189      2.669
REMARK  5 active torsions:
REMARK  status: ('A' for Active; 'I' for Inactive)
REMARK    1  A    between atoms: S_1  and  C_2 
REMARK    2  A    between atoms: S_1  and  C_3 
REMARK    3  A    between atoms: C_2  and  C_4 
REMARK    4  A    between atoms: C_3  and  C_5 
REMARK    5  A    between atoms: C_5  and  N_9 
REMARK       I    between atoms: N_9  and  C_13 
REMARK       I    between atoms: C_13  and  N_14 
ROOT
HETATM    1  N   UNK N   1      90.114  16.615  42.807  0.00  0.00    -0.225 N 
HETATM    2  C   UNK N   1      90.639  16.648  44.071  0.00  0.00     0.682 C 
HETATM    3  N   UNK N   1      91.103  17.699  44.678  0.00  0.00    -0.126 N 
ATOM      4  HN  UNK N   1      91.477  17.630  45.625  1.00  0.00     0.197 HD
HETATM    5  N   UNK N   1      90.654  15.438  44.701  0.00  0.00    -0.230 N 
HETATM    6  C   UNK N   1      91.082  18.872  44.041  0.00  0.00     0.196 C 
HETATM    7  C   UNK N   1      91.188  15.229  46.024  0.00  0.00     0.165 C 
HETATM    8  N   UNK N   1      91.043  19.869  43.452  0.00  0.00    -0.171 NA
HETATM    9  H   UNK N   1      90.058  17.505  42.319  0.00  0.00     0.177 HD
HETATM   10  H   UNK N   1      90.199  14.645  44.278  0.00  0.00     0.177 HD
ENDROOT
BRANCH   1  11
HETATM   11  C   UNK N   1      89.661  15.465  42.045  0.00  0.00     0.148 C 
BRANCH  11  12
HETATM   12  C   UNK N   1      90.474  15.312  40.757  0.00  0.00     0.094 C 
BRANCH  12  13
HETATM   13  S   UNK N   1      89.965  13.864  39.773  0.00  0.00    -0.161 SA
BRANCH  13  14
HETATM   14  C   UNK N   1      91.095  14.058  38.351  0.00  0.00     0.133 C 
BRANCH  14  15
HETATM   15  C   UNK N   1      91.649  12.744  37.910  0.00  0.00     0.041 A 
HETATM   16  N   UNK N   1      90.864  11.871  37.186  0.00  0.00    -0.353 N 
HETATM   17  C   UNK N   1      91.618  10.823  36.955  0.00  0.00     0.180 A 
ATOM     18  HN  UNK N   1      89.898  12.010  36.892  1.00  0.00     0.166 HD
HETATM   19  N   UNK N   1      92.867  10.980  37.482  0.00  0.00    -0.354 N 
HETATM   20  C   UNK N   1      92.916  12.211  38.084  0.00  0.00     0.029 A 
HETATM   21  H   UNK N   1      93.616  10.304  37.433  0.00  0.00     0.166 HD
HETATM   22  C   UNK N   1      94.126  12.722  38.764  0.00  0.00     0.070 C 
ENDBRANCH  14  15
ENDBRANCH  13  14
ENDBRANCH  12  13
ENDBRANCH  11  12
ENDBRANCH   1  11
TORSDOF 5
ENDMDL
MODEL 5
REMARK VINA RESULT:      -6.6      1.663      2.568
REMARK  5 active torsions:
REMARK  status: ('A' for Active; 'I' for Inactive)
REMARK    1  A    between atoms: S_1  and  C_2 
REMARK    2  A    between atoms: S_1  and  C_3 
REMARK    3  A    between atoms: C_2  and  C_4 
REMARK    4  A    between atoms: C_3  and  C_5 
REMARK    5  A    between atoms: C_5  and  N_9 
REMARK       I    between atoms: N_9  and  C_13 
REMARK       I    between atoms: C_13  and  N_14 
ROOT
HETATM    1  N   UNK N   1      90.671  15.731  43.339  0.00  0.00    -0.225 N 
HETATM    2  C   UNK N   1      91.331  16.893  43.639  0.00  0.00     0.682 C 
HETATM    3  N   UNK N   1      92.570  16.991  44.020  0.00  0.00    -0.126 N 
ATOM      4  HN  UNK N   1      92.980  17.902  44.223  1.00  0.00     0.197 HD
HETATM    5  N   UNK N   1      90.568  18.017  43.513  0.00  0.00    -0.230 N 
HETATM    6  C   UNK N   1      93.296  15.877  44.141  0.00  0.00     0.196 C 
HETATM    7  C   UNK N   1      91.044  19.347  43.806  0.00  0.00     0.165 C 
HETATM    8  N   UNK N   1      93.889  14.886  44.231  0.00  0.00    -0.171 NA
HETATM    9  H   UNK N   1      91.218  14.876  43.392  0.00  0.00     0.177 HD
HETATM   10  H   UNK N   1      89.645  17.956  43.116  0.00  0.00     0.177 HD
ENDROOT
BRANCH   1  11
HETATM   11  C   UNK N   1      89.273  15.549  42.993  0.00  0.00     0.148 C 
BRANCH  11  12
HETATM   12  C   UNK N   1      89.131  14.663  41.753  0.00  0.00     0.094 C 
BRANCH  12  13
HETATM   13  S   UNK N   1      90.398  15.013  40.490  0.00  0.00    -0.161 SA
BRANCH  13  14
HETATM   14  C   UNK N   1      91.321  13.438  40.549  0.00  0.00     0.133 C 
BRANCH  14  15
HETATM   15  C   UNK N   1      92.772  13.645  40.273  0.00  0.00     0.041 A 
HETATM   16  N   UNK N   1      93.635  13.957  41.304  0.00  0.00    -0.353 N 
HETATM   17  C   UNK N   1      94.819  14.077  40.753  0.00  0.00     0.180 A 
ATOM     18  HN  UNK N   1      93.401  14.070  42.290  1.00  0.00     0.166 HD
HETATM   19  N   UNK N   1      94.772  13.841  39.410  0.00  0.00    -0.354 N 
HETATM   20  C   UNK N   1      93.473  13.544  39.082  0.00  0.00     0.029 A 
HETATM   21  H   UNK N   1      95.557  13.880  38.777  0.00  0.00     0.166 HD
HETATM   22  C   UNK N   1      93.047  13.232  37.701  0.00  0.00     0.070 C 
ENDBRANCH  14  15
ENDBRANCH  13  14
ENDBRANCH  12  13
ENDBRANCH  11  12
ENDBRANCH   1  11
TORSDOF 5
ENDMDL
MODEL 6
REMARK VINA RESULT:      -6.5      2.140      3.021
REMARK  5 active torsions:
REMARK  status: ('A' for Active; 'I' for Inactive)
REMARK    1  A    between atoms: S_1  and  C_2 
REMARK    2  A    between atoms: S_1  and  C_3 
REMARK    3  A    between atoms: C_2  and  C_4 
REMARK    4  A    between atoms: C_3  and  C_5 
REMARK    5  A    between atoms: C_5  and  N_9 
REMARK       I    between atoms: N_9  and  C_13 
REMARK       I    between atoms: C_13  and  N_14 
ROOT
HETATM    1  N   UNK N   1      92.321  16.796  44.004  0.00  0.00    -0.225 N 
HETATM    2  C   UNK N   1      90.977  16.898  43.758  0.00  0.00     0.682 C 
HETATM    3  N   UNK N   1      90.316  18.002  43.577  0.00  0.00    -0.126 N 
ATOM      4  HN  UNK N   1      89.312  17.982  43.399  1.00  0.00     0.197 HD
HETATM    5  N   UNK N   1      90.326  15.700  43.714  0.00  0.00    -0.230 N 
HETATM    6  C   UNK N   1      90.974  19.162  43.628  0.00  0.00     0.196 C 
HETATM    7  C   UNK N   1      88.905  15.567  43.500  0.00  0.00     0.165 C 
HETATM    8  N   UNK N   1      91.584  20.146  43.680  0.00  0.00    -0.171 NA
HETATM    9  H   UNK N   1      92.845  17.667  44.012  0.00  0.00     0.177 HD
HETATM   10  H   UNK N   1      90.850  14.841  43.746  0.00  0.00     0.177 HD
ENDROOT
BRANCH   1  11
HETATM   11  C   UNK N   1      93.099  15.606  44.298  0.00  0.00     0.148 C 
BRANCH  11  12
HETATM   12  C   UNK N   1      93.899  15.162  43.071  0.00  0.00     0.094 C 
BRANCH  12  13
HETATM   13  S   UNK N   1      93.476  13.474  42.530  0.00  0.00    -0.161 SA
BRANCH  13  14
HETATM   14  C   UNK N   1      93.787  13.649  40.738  0.00  0.00     0.133 C 
BRANCH  14  15
HETATM   15  C   UNK N   1      92.525  13.914  39.988  0.00  0.00     0.041 A 
HETATM   16  N   UNK N   1      91.449  14.494  40.627  0.00  0.00    -0.353 N 
HETATM   17  C   UNK N   1      90.507  14.593  39.720  0.00  0.00     0.180 A 
ATOM     18  HN  UNK N   1      91.396  14.785  41.603  1.00  0.00     0.166 HD
HETATM   19  N   UNK N   1      90.925  14.118  38.512  0.00  0.00    -0.354 N 
HETATM   20  C   UNK N   1      92.222  13.694  38.654  0.00  0.00     0.029 A 
HETATM   21  H   UNK N   1      90.372  14.088  37.667  0.00  0.00     0.166 HD
HETATM   22  C   UNK N   1      93.002  13.116  37.538  0.00  0.00     0.070 C 
ENDBRANCH  14  15
ENDBRANCH  13  14
ENDBRANCH  12  13
ENDBRANCH  11  12
ENDBRANCH   1  11
TORSDOF 5
ENDMDL
MODEL 7
REMARK VINA RESULT:      -6.4     14.080     17.329
REMARK  5 active torsions:
REMARK  status: ('A' for Active; 'I' for Inactive)
REMARK    1  A    between atoms: S_1  and  C_2 
REMARK    2  A    between atoms: S_1  and  C_3 
REMARK    3  A    between atoms: C_2  and  C_4 
REMARK    4  A    between atoms: C_3  and  C_5 
REMARK    5  A    between atoms: C_5  and  N_9 
REMARK       I    between atoms: N_9  and  C_13 
REMARK       I    between atoms: C_13  and  N_14 
ROOT
HETATM    1  N   UNK N   1      84.123  25.948  37.917  0.00  0.00    -0.225 N 
HETATM    2  C   UNK N   1      84.876  26.498  38.920  0.00  0.00     0.682 C 
HETATM    3  N   UNK N   1      85.931  25.966  39.462  0.00  0.00    -0.126 N 
ATOM      4  HN  UNK N   1      86.432  26.450  40.207  1.00  0.00     0.197 HD
HETATM    5  N   UNK N   1      84.429  27.713  39.351  0.00  0.00    -0.230 N 
HETATM    6  C   UNK N   1      86.347  24.775  39.026  0.00  0.00     0.196 C 
HETATM    7  C   UNK N   1      85.047  28.462  40.418  0.00  0.00     0.165 C 
HETATM    8  N   UNK N   1      86.675  23.742  38.617  0.00  0.00    -0.171 NA
HETATM    9  H   UNK N   1      84.445  25.057  37.549  0.00  0.00     0.177 HD
HETATM   10  H   UNK N   1      83.680  28.176  38.863  0.00  0.00     0.177 HD
ENDROOT
BRANCH   1  11
HETATM   11  C   UNK N   1      82.893  26.449  37.332  0.00  0.00     0.148 C 
BRANCH  11  12
HETATM   12  C   UNK N   1      82.224  25.374  36.470  0.00  0.00     0.094 C 
BRANCH  12  13
HETATM   13  S   UNK N   1      80.446  25.191  36.829  0.00  0.00    -0.161 SA
BRANCH  13  14
HETATM   14  C   UNK N   1      80.073  26.898  37.363  0.00  0.00     0.133 C 
BRANCH  14  15
HETATM   15  C   UNK N   1      79.555  27.723  36.234  0.00  0.00     0.041 A 
HETATM   16  N   UNK N   1      79.553  27.216  34.950  0.00  0.00    -0.353 N 
HETATM   17  C   UNK N   1      79.049  28.161  34.194  0.00  0.00     0.180 A 
ATOM     18  HN  UNK N   1      79.877  26.296  34.651  1.00  0.00     0.166 HD
HETATM   19  N   UNK N   1      78.706  29.258  34.929  0.00  0.00    -0.354 N 
HETATM   20  C   UNK N   1      79.004  28.994  36.241  0.00  0.00     0.029 A 
HETATM   21  H   UNK N   1      78.304  30.110  34.564  0.00  0.00     0.166 HD
HETATM   22  C   UNK N   1      78.762  29.967  37.329  0.00  0.00     0.070 C 
ENDBRANCH  14  15
ENDBRANCH  13  14
ENDBRANCH  12  13
ENDBRANCH  11  12
ENDBRANCH   1  11
TORSDOF 5
ENDMDL
MODEL 8
REMARK VINA RESULT:      -6.3      3.164      4.104
REMARK  5 active torsions:
REMARK  status: ('A' for Active; 'I' for Inactive)
REMARK    1  A    between atoms: S_1  and  C_2 
REMARK    2  A    between atoms: S_1  and  C_3 
REMARK    3  A    between atoms: C_2  and  C_4 
REMARK    4  A    between atoms: C_3  and  C_5 
REMARK    5  A    between atoms: C_5  and  N_9 
REMARK       I    between atoms: N_9  and  C_13 
REMARK       I    between atoms: C_13  and  N_14 
ROOT
HETATM    1  N   UNK N   1      90.149  16.610  42.815  0.00  0.00    -0.225 N 
HETATM    2  C   UNK N   1      90.646  16.656  44.091  0.00  0.00     0.682 C 
HETATM    3  N   UNK N   1      91.096  17.714  44.696  0.00  0.00    -0.126 N 
ATOM      4  HN  UNK N   1      91.449  17.655  45.652  1.00  0.00     0.197 HD
HETATM    5  N   UNK N   1      90.646  15.453  44.733  0.00  0.00    -0.230 N 
HETATM    6  C   UNK N   1      91.090  18.880  44.046  0.00  0.00     0.196 C 
HETATM    7  C   UNK N   1      91.150  15.259  46.071  0.00  0.00     0.165 C 
HETATM    8  N   UNK N   1      91.065  19.871  43.446  0.00  0.00    -0.171 NA
HETATM    9  H   UNK N   1      90.105  17.496  42.317  0.00  0.00     0.177 HD
HETATM   10  H   UNK N   1      90.200  14.656  44.309  0.00  0.00     0.177 HD
ENDROOT
BRANCH   1  11
HETATM   11  C   UNK N   1      89.713  15.453  42.056  0.00  0.00     0.148 C 
BRANCH  11  12
HETATM   12  C   UNK N   1      90.909  14.733  41.426  0.00  0.00     0.094 C 
BRANCH  12  13
HETATM   13  S   UNK N   1      90.886  14.793  39.604  0.00  0.00    -0.161 SA
BRANCH  13  14
HETATM   14  C   UNK N   1      91.176  13.025  39.245  0.00  0.00     0.133 C 
BRANCH  14  15
HETATM   15  C   UNK N   1      90.028  12.423  38.506  0.00  0.00     0.041 A 
HETATM   16  N   UNK N   1      90.182  12.025  37.194  0.00  0.00    -0.353 N 
HETATM   17  C   UNK N   1      89.017  11.547  36.827  0.00  0.00     0.180 A 
ATOM     18  HN  UNK N   1      91.027  12.090  36.626  1.00  0.00     0.166 HD
HETATM   19  N   UNK N   1      88.113  11.599  37.847  0.00  0.00    -0.354 N 
HETATM   20  C   UNK N   1      88.743  12.140  38.939  0.00  0.00     0.029 A 
HETATM   21  H   UNK N   1      87.152  11.292  37.798  0.00  0.00     0.166 HD
HETATM   22  C   UNK N   1      88.061  12.348  40.235  0.00  0.00     0.070 C 
ENDBRANCH  14  15
ENDBRANCH  13  14
ENDBRANCH  12  13
ENDBRANCH  11  12
ENDBRANCH   1  11
TORSDOF 5
ENDMDL
MODEL 9
REMARK VINA RESULT:      -6.3      2.852      3.809
REMARK  5 active torsions:
REMARK  status: ('A' for Active; 'I' for Inactive)
REMARK    1  A    between atoms: S_1  and  C_2 
REMARK    2  A    between atoms: S_1  and  C_3 
REMARK    3  A    between atoms: C_2  and  C_4 
REMARK    4  A    between atoms: C_3  and  C_5 
REMARK    5  A    between atoms: C_5  and  N_9 
REMARK       I    between atoms: N_9  and  C_13 
REMARK       I    between atoms: C_13  and  N_14 
ROOT
HETATM    1  N   UNK N   1      90.701  15.724  43.256  0.00  0.00    -0.225 N 
HETATM    2  C   UNK N   1      91.343  16.893  43.569  0.00  0.00     0.682 C 
HETATM    3  N   UNK N   1      92.586  17.007  43.930  0.00  0.00    -0.126 N 
ATOM      4  HN  UNK N   1      92.983  17.922  44.145  1.00  0.00     0.197 HD
HETATM    5  N   UNK N   1      90.556  18.003  43.479  0.00  0.00    -0.230 N 
HETATM    6  C   UNK N   1      93.336  15.905  44.015  0.00  0.00     0.196 C 
HETATM    7  C   UNK N   1      91.012  19.336  43.792  0.00  0.00     0.165 C 
HETATM    8  N   UNK N   1      93.950  14.925  44.074  0.00  0.00    -0.171 NA
HETATM    9  H   UNK N   1      91.265  14.879  43.281  0.00  0.00     0.177 HD
HETATM   10  H   UNK N   1      89.628  17.932  43.097  0.00  0.00     0.177 HD
ENDROOT
BRANCH   1  11
HETATM   11  C   UNK N   1      89.301  15.521  42.930  0.00  0.00     0.148 C 
BRANCH  11  12
HETATM   12  C   UNK N   1      89.153  14.629  41.695  0.00  0.00     0.094 C 
BRANCH  12  13
HETATM   13  S   UNK N   1      90.751  13.984  41.100  0.00  0.00    -0.161 SA
BRANCH  13  14
HETATM   14  C   UNK N   1      90.642  14.490  39.348  0.00  0.00     0.133 C 
BRANCH  14  15
HETATM   15  C   UNK N   1      90.659  13.309  38.436  0.00  0.00     0.041 A 
HETATM   16  N   UNK N   1      89.479  12.676  38.102  0.00  0.00    -0.353 N 
HETATM   17  C   UNK N   1      89.816  11.692  37.304  0.00  0.00     0.180 A 
ATOM     18  HN  UNK N   1      88.539  12.923  38.411  1.00  0.00     0.166 HD
HETATM   19  N   UNK N   1      91.162  11.662  37.089  0.00  0.00    -0.354 N 
HETATM   20  C   UNK N   1      91.722  12.700  37.790  0.00  0.00     0.029 A 
HETATM   21  H   UNK N   1      91.653  10.991  36.514  0.00  0.00     0.166 HD
HETATM   22  C   UNK N   1      93.175  12.975  37.789  0.00  0.00     0.070 C 
ENDBRANCH  14  15
ENDBRANCH  13  14
ENDBRANCH  12  13
ENDBRANCH  11  12
ENDBRANCH   1  11
TORSDOF 5
ENDMDL
