MODEL 1
REMARK VINA RESULT:      -9.5      0.000      0.000
REMARK  5 active torsions:
REMARK  status: ('A' for Active; 'I' for Inactive)
REMARK    1  A    between atoms: N_10  and  C_12 
REMARK    2  A    between atoms: N_17  and  C_18 
REMARK    3  A    between atoms: C_18  and  C_19 
REMARK    4  A    between atoms: C_19  and  C_20 
REMARK    5  A    between atoms: C_20  and  N_21 
ROOT
HETATM    1  C   UNK N   1      80.261  21.184  40.768  0.00  0.00     0.098 C 
HETATM    2  C   UNK N   1      79.976  22.608  41.250  0.00  0.00     0.056 C 
HETATM    3  C   UNK N   1      81.402  21.201  39.747  0.00  0.00     0.056 C 
HETATM    4  C   UNK N   1      79.702  23.535  40.065  0.00  0.00     0.274 C 
HETATM    5  C   UNK N   1      81.083  22.167  38.607  0.00  0.00     0.274 C 
HETATM    6  N   UNK N   1      80.816  23.526  39.104  0.00  0.00     0.088 N 
ENDROOT
BRANCH   6   7
HETATM    7  C   UNK N   1      80.589  24.442  37.974  0.00  0.00     0.274 C 
BRANCH   7   8
HETATM    8  C   UNK N   1      81.560  24.279  36.799  0.00  0.00     0.050 C 
BRANCH   8   9
HETATM    9  C   UNK N   1      82.186  25.602  36.355  0.00  0.00     0.135 C 
BRANCH   9  10
HETATM   10  N   UNK N   1      83.047  26.144  37.377  0.00  0.00    -0.297 N 
HETATM   11  C   UNK N   1      82.925  27.430  37.942  0.00  0.00     0.327 A 
HETATM   12  O   UNK N   1      82.088  28.283  37.697  0.00  0.00    -0.247 OA
HETATM   13  N   UNK N   1      83.984  27.566  38.854  0.00  0.00    -0.306 N 
HETATM   14  C   UNK N   1      84.747  26.404  38.838  0.00  0.00     0.063 A 
HETATM   15  H   UNK N   1      84.141  28.393  39.405  0.00  0.00     0.171 HD
HETATM   16  C   UNK N   1      84.177  25.518  37.922  0.00  0.00     0.065 A 
HETATM   17  C   UNK N   1      85.880  26.100  39.556  0.00  0.00     0.032 A 
HETATM   18  C   UNK N   1      84.726  24.277  37.684  0.00  0.00     0.032 A 
HETATM   19  C   UNK N   1      85.880  23.942  38.403  0.00  0.00     0.002 A 
HETATM   20  C   UNK N   1      86.450  24.843  39.329  0.00  0.00     0.002 A 
ENDBRANCH   9  10
ENDBRANCH   8   9
ENDBRANCH   7   8
ENDBRANCH   6   7
BRANCH   1  21
HETATM   21  N   UNK N   1      80.517  20.275  41.874  0.00  0.00    -0.293 N 
HETATM   22  C   UNK N   1      81.120  20.624  43.096  0.00  0.00     0.066 A 
HETATM   23  C   UNK N   1      81.230  19.459  43.860  0.00  0.00     0.065 A 
HETATM   24  C   UNK N   1      81.569  21.836  43.578  0.00  0.00     0.034 A 
HETATM   25  C   UNK N   1      81.779  19.441  45.121  0.00  0.00     0.055 A 
HETATM   26  N   UNK N   1      80.710  18.404  43.124  0.00  0.00    -0.306 N 
HETATM   27  C   UNK N   1      82.235  20.663  45.618  0.00  0.00     0.036 A 
HETATM   28 Cl   UNK N   1      82.936  20.729  47.190  0.00  0.00    -0.084 Cl
HETATM   29  C   UNK N   1      82.133  21.848  44.860  0.00  0.00     0.026 A 
HETATM   30  C   UNK N   1      80.268  18.882  41.881  0.00  0.00     0.328 A 
HETATM   31  H   UNK N   1      80.655  17.436  43.392  0.00  0.00     0.171 HD
HETATM   32  O   UNK N   1      79.775  18.193  41.006  0.00  0.00    -0.247 OA
ENDBRANCH   1  21
TORSDOF 5
ENDMDL
MODEL 2
REMARK VINA RESULT:      -9.3      1.959      2.656
REMARK  5 active torsions:
REMARK  status: ('A' for Active; 'I' for Inactive)
REMARK    1  A    between atoms: N_10  and  C_12 
REMARK    2  A    between atoms: N_17  and  C_18 
REMARK    3  A    between atoms: C_18  and  C_19 
REMARK    4  A    between atoms: C_19  and  C_20 
REMARK    5  A    between atoms: C_20  and  N_21 
ROOT
HETATM    1  C   UNK N   1      80.537  21.017  40.902  0.00  0.00     0.098 C 
HETATM    2  C   UNK N   1      80.238  22.435  41.392  0.00  0.00     0.056 C 
HETATM    3  C   UNK N   1      81.571  21.064  39.775  0.00  0.00     0.056 C 
HETATM    4  C   UNK N   1      79.809  23.329  40.227  0.00  0.00     0.274 C 
HETATM    5  C   UNK N   1      81.101  21.996  38.658  0.00  0.00     0.274 C 
HETATM    6  N   UNK N   1      80.824  23.351  39.162  0.00  0.00     0.088 N 
ENDROOT
BRANCH   6   7
HETATM    7  C   UNK N   1      80.448  24.237  38.048  0.00  0.00     0.274 C 
BRANCH   7   8
HETATM    8  C   UNK N   1      81.313  24.104  36.789  0.00  0.00     0.050 C 
BRANCH   8   9
HETATM    9  C   UNK N   1      81.855  25.445  36.292  0.00  0.00     0.135 C 
BRANCH   9  10
HETATM   10  N   UNK N   1      82.679  26.080  37.291  0.00  0.00    -0.297 N 
HETATM   11  C   UNK N   1      82.457  27.364  37.829  0.00  0.00     0.327 A 
HETATM   12  O   UNK N   1      81.549  28.138  37.576  0.00  0.00    -0.247 OA
HETATM   13  N   UNK N   1      83.511  27.608  38.722  0.00  0.00    -0.306 N 
HETATM   14  C   UNK N   1      84.368  26.514  38.722  0.00  0.00     0.063 A 
HETATM   15  H   UNK N   1      83.606  28.458  39.253  0.00  0.00     0.171 HD
HETATM   16  C   UNK N   1      83.863  25.563  37.833  0.00  0.00     0.065 A 
HETATM   17  C   UNK N   1      85.531  26.322  39.431  0.00  0.00     0.032 A 
HETATM   18  C   UNK N   1      84.511  24.367  37.615  0.00  0.00     0.032 A 
HETATM   19  C   UNK N   1      85.698  24.146  38.326  0.00  0.00     0.002 A 
HETATM   20  C   UNK N   1      86.201  25.112  39.224  0.00  0.00     0.002 A 
ENDBRANCH   9  10
ENDBRANCH   8   9
ENDBRANCH   7   8
ENDBRANCH   6   7
BRANCH   1  21
HETATM   21  N   UNK N   1      80.939  20.139  41.990  0.00  0.00    -0.293 N 
HETATM   22  C   UNK N   1      80.735  18.747  42.035  0.00  0.00     0.066 A 
HETATM   23  C   UNK N   1      81.215  18.290  43.264  0.00  0.00     0.065 A 
HETATM   24  C   UNK N   1      80.182  17.877  41.119  0.00  0.00     0.034 A 
HETATM   25  C   UNK N   1      81.172  16.967  43.639  0.00  0.00     0.055 A 
HETATM   26  N   UNK N   1      81.702  19.379  43.974  0.00  0.00    -0.306 N 
HETATM   27  C   UNK N   1      80.613  16.079  42.719  0.00  0.00     0.036 A 
HETATM   28 Cl   UNK N   1      80.521  14.404  43.109  0.00  0.00    -0.084 Cl
HETATM   29  C   UNK N   1      80.123  16.523  41.473  0.00  0.00     0.026 A 
HETATM   30  C   UNK N   1      81.534  20.542  43.208  0.00  0.00     0.328 A 
HETATM   31  H   UNK N   1      82.103  19.380  44.898  0.00  0.00     0.171 HD
HETATM   32  O   UNK N   1      81.850  21.662  43.566  0.00  0.00    -0.247 OA
ENDBRANCH   1  21
TORSDOF 5
ENDMDL
MODEL 3
REMARK VINA RESULT:      -9.0     14.854     16.611
REMARK  5 active torsions:
REMARK  status: ('A' for Active; 'I' for Inactive)
REMARK    1  A    between atoms: N_10  and  C_12 
REMARK    2  A    between atoms: N_17  and  C_18 
REMARK    3  A    between atoms: C_18  and  C_19 
REMARK    4  A    between atoms: C_19  and  C_20 
REMARK    5  A    between atoms: C_20  and  N_21 
ROOT
HETATM    1  C   UNK N   1      91.956  13.284  40.298  0.00  0.00     0.098 C 
HETATM    2  C   UNK N   1      92.363  13.719  38.889  0.00  0.00     0.056 C 
HETATM    3  C   UNK N   1      92.172  11.777  40.459  0.00  0.00     0.056 C 
HETATM    4  C   UNK N   1      91.623  12.895  37.835  0.00  0.00     0.274 C 
HETATM    5  C   UNK N   1      91.435  11.012  39.360  0.00  0.00     0.274 C 
HETATM    6  N   UNK N   1      91.851  11.453  38.018  0.00  0.00     0.088 N 
ENDROOT
BRANCH   6   7
HETATM    7  C   UNK N   1      91.178  10.643  36.990  0.00  0.00     0.274 C 
BRANCH   7   8
HETATM    8  C   UNK N   1      92.040   9.541  36.363  0.00  0.00     0.050 C 
BRANCH   8   9
HETATM    9  C   UNK N   1      91.232   8.570  35.499  0.00  0.00     0.135 C 
BRANCH   9  10
HETATM   10  N   UNK N   1      91.631   8.643  34.115  0.00  0.00    -0.297 N 
HETATM   11  C   UNK N   1      90.864   9.216  33.079  0.00  0.00     0.327 A 
HETATM   12  O   UNK N   1      89.773   9.754  33.161  0.00  0.00    -0.247 OA
HETATM   13  N   UNK N   1      91.596   9.033  31.896  0.00  0.00    -0.306 N 
HETATM   14  C   UNK N   1      92.771   8.352  32.191  0.00  0.00     0.063 A 
HETATM   15  H   UNK N   1      91.282   9.347  30.993  0.00  0.00     0.171 HD
HETATM   16  C   UNK N   1      92.800   8.101  33.563  0.00  0.00     0.065 A 
HETATM   17  C   UNK N   1      93.777   7.948  31.343  0.00  0.00     0.032 A 
HETATM   18  C   UNK N   1      93.849   7.427  34.150  0.00  0.00     0.032 A 
HETATM   19  C   UNK N   1      94.886   7.006  33.309  0.00  0.00     0.002 A 
HETATM   20  C   UNK N   1      94.851   7.265  31.922  0.00  0.00     0.002 A 
ENDBRANCH   9  10
ENDBRANCH   8   9
ENDBRANCH   7   8
ENDBRANCH   6   7
BRANCH   1  21
HETATM   21  N   UNK N   1      92.636  14.056  41.325  0.00  0.00    -0.293 N 
HETATM   22  C   UNK N   1      92.036  15.022  42.154  0.00  0.00     0.066 A 
HETATM   23  C   UNK N   1      93.038  15.568  42.960  0.00  0.00     0.065 A 
HETATM   24  C   UNK N   1      90.729  15.451  42.255  0.00  0.00     0.034 A 
HETATM   25  C   UNK N   1      92.796  16.548  43.895  0.00  0.00     0.055 A 
HETATM   26  N   UNK N   1      94.241  14.957  42.634  0.00  0.00    -0.306 N 
HETATM   27  C   UNK N   1      91.476  16.987  44.005  0.00  0.00     0.036 A 
HETATM   28 Cl   UNK N   1      91.085  18.212  45.152  0.00  0.00    -0.084 Cl
HETATM   29  C   UNK N   1      90.452  16.448  43.199  0.00  0.00     0.026 A 
HETATM   30  C   UNK N   1      94.021  14.020  41.613  0.00  0.00     0.328 A 
HETATM   31  H   UNK N   1      95.149  15.138  43.029  0.00  0.00     0.171 HD
HETATM   32  O   UNK N   1      94.886  13.331  41.102  0.00  0.00    -0.247 OA
ENDBRANCH   1  21
TORSDOF 5
ENDMDL
MODEL 4
REMARK VINA RESULT:      -9.0     11.041     13.227
REMARK  5 active torsions:
REMARK  status: ('A' for Active; 'I' for Inactive)
REMARK    1  A    between atoms: N_10  and  C_12 
REMARK    2  A    between atoms: N_17  and  C_18 
REMARK    3  A    between atoms: C_18  and  C_19 
REMARK    4  A    between atoms: C_19  and  C_20 
REMARK    5  A    between atoms: C_20  and  N_21 
ROOT
HETATM    1  C   UNK N   1      88.493  15.022  44.360  0.00  0.00     0.098 C 
HETATM    2  C   UNK N   1      89.573  14.201  45.067  0.00  0.00     0.056 C 
HETATM    3  C   UNK N   1      89.015  15.506  43.004  0.00  0.00     0.056 C 
HETATM    4  C   UNK N   1      90.872  15.000  45.180  0.00  0.00     0.274 C 
HETATM    5  C   UNK N   1      90.328  16.268  43.179  0.00  0.00     0.274 C 
HETATM    6  N   UNK N   1      91.344  15.450  43.861  0.00  0.00     0.088 N 
ENDROOT
BRANCH   6   7
HETATM    7  C   UNK N   1      92.615  16.188  43.943  0.00  0.00     0.274 C 
BRANCH   7   8
HETATM    8  C   UNK N   1      93.861  15.385  43.551  0.00  0.00     0.050 C 
BRANCH   8   9
HETATM    9  C   UNK N   1      93.528  13.997  43.000  0.00  0.00     0.135 C 
BRANCH   9  10
HETATM   10  N   UNK N   1      93.797  13.917  41.586  0.00  0.00    -0.297 N 
HETATM   11  C   UNK N   1      95.083  13.861  41.007  0.00  0.00     0.327 A 
HETATM   12  O   UNK N   1      96.162  13.850  41.575  0.00  0.00    -0.247 OA
HETATM   13  N   UNK N   1      94.892  13.840  39.617  0.00  0.00    -0.306 N 
HETATM   14  C   UNK N   1      93.530  13.899  39.346  0.00  0.00     0.063 A 
HETATM   15  H   UNK N   1      95.646  13.801  38.952  0.00  0.00     0.171 HD
HETATM   16  C   UNK N   1      92.843  13.952  40.560  0.00  0.00     0.065 A 
HETATM   17  C   UNK N   1      92.887  13.916  38.130  0.00  0.00     0.032 A 
HETATM   18  C   UNK N   1      91.468  14.026  40.607  0.00  0.00     0.032 A 
HETATM   19  C   UNK N   1      90.789  14.044  39.382  0.00  0.00     0.002 A 
HETATM   20  C   UNK N   1      91.491  13.988  38.158  0.00  0.00     0.002 A 
ENDBRANCH   9  10
ENDBRANCH   8   9
ENDBRANCH   7   8
ENDBRANCH   6   7
BRANCH   1  21
HETATM   21  N   UNK N   1      87.240  14.292  44.246  0.00  0.00    -0.293 N 
HETATM   22  C   UNK N   1      86.972  13.268  43.320  0.00  0.00     0.066 A 
HETATM   23  C   UNK N   1      85.646  12.869  43.504  0.00  0.00     0.065 A 
HETATM   24  C   UNK N   1      87.766  12.677  42.359  0.00  0.00     0.034 A 
HETATM   25  C   UNK N   1      85.052  11.877  42.757  0.00  0.00     0.055 A 
HETATM   26  N   UNK N   1      85.097  13.636  44.522  0.00  0.00    -0.306 N 
HETATM   27  C   UNK N   1      85.849  11.273  41.783  0.00  0.00     0.036 A 
HETATM   28 Cl   UNK N   1      85.183  10.022  40.804  0.00  0.00    -0.084 Cl
HETATM   29  C   UNK N   1      87.189  11.664  41.583  0.00  0.00     0.026 A 
HETATM   30  C   UNK N   1      86.065  14.536  44.994  0.00  0.00     0.328 A 
HETATM   31  H   UNK N   1      84.158  13.597  44.882  0.00  0.00     0.171 HD
HETATM   32  O   UNK N   1      85.882  15.353  45.879  0.00  0.00    -0.247 OA
ENDBRANCH   1  21
TORSDOF 5
ENDMDL
MODEL 5
REMARK VINA RESULT:      -8.7     10.510     12.705
REMARK  5 active torsions:
REMARK  status: ('A' for Active; 'I' for Inactive)
REMARK    1  A    between atoms: N_10  and  C_12 
REMARK    2  A    between atoms: N_17  and  C_18 
REMARK    3  A    between atoms: C_18  and  C_19 
REMARK    4  A    between atoms: C_19  and  C_20 
REMARK    5  A    between atoms: C_20  and  N_21 
ROOT
HETATM    1  C   UNK N   1      88.200  14.822  44.337  0.00  0.00     0.098 C 
HETATM    2  C   UNK N   1      89.204  13.836  44.937  0.00  0.00     0.056 C 
HETATM    3  C   UNK N   1      88.826  15.532  43.135  0.00  0.00     0.056 C 
HETATM    4  C   UNK N   1      90.517  14.541  45.279  0.00  0.00     0.274 C 
HETATM    5  C   UNK N   1      90.148  16.189  43.531  0.00  0.00     0.274 C 
HETATM    6  N   UNK N   1      91.090  15.214  44.103  0.00  0.00     0.088 N 
ENDROOT
BRANCH   6   7
HETATM    7  C   UNK N   1      92.375  15.867  44.401  0.00  0.00     0.274 C 
BRANCH   7   8
HETATM    8  C   UNK N   1      93.518  15.527  43.438  0.00  0.00     0.050 C 
BRANCH   8   9
HETATM    9  C   UNK N   1      93.531  14.054  43.024  0.00  0.00     0.135 C 
BRANCH   9  10
HETATM   10  N   UNK N   1      93.787  13.909  41.612  0.00  0.00    -0.297 N 
HETATM   11  C   UNK N   1      95.055  13.686  41.037  0.00  0.00     0.327 A 
HETATM   12  O   UNK N   1      96.126  13.557  41.606  0.00  0.00    -0.247 OA
HETATM   13  N   UNK N   1      94.861  13.656  39.647  0.00  0.00    -0.306 N 
HETATM   14  C   UNK N   1      93.516  13.872  39.373  0.00  0.00     0.063 A 
HETATM   15  H   UNK N   1      95.605  13.511  38.984  0.00  0.00     0.171 HD
HETATM   16  C   UNK N   1      92.843  14.036  40.584  0.00  0.00     0.065 A 
HETATM   17  C   UNK N   1      92.878  13.939  38.155  0.00  0.00     0.032 A 
HETATM   18  C   UNK N   1      91.487  14.276  40.627  0.00  0.00     0.032 A 
HETATM   19  C   UNK N   1      90.813  14.347  39.401  0.00  0.00     0.002 A 
HETATM   20  C   UNK N   1      91.501  14.180  38.180  0.00  0.00     0.002 A 
ENDBRANCH   9  10
ENDBRANCH   8   9
ENDBRANCH   7   8
ENDBRANCH   6   7
BRANCH   1  21
HETATM   21  N   UNK N   1      86.936  14.182  44.011  0.00  0.00    -0.293 N 
HETATM   22  C   UNK N   1      85.685  14.513  44.562  0.00  0.00     0.066 A 
HETATM   23  C   UNK N   1      84.741  13.633  44.028  0.00  0.00     0.065 A 
HETATM   24  C   UNK N   1      85.317  15.488  45.466  0.00  0.00     0.034 A 
HETATM   25  C   UNK N   1      83.406  13.677  44.356  0.00  0.00     0.055 A 
HETATM   26  N   UNK N   1      85.395  12.765  43.164  0.00  0.00    -0.306 N 
HETATM   27  C   UNK N   1      83.024  14.661  45.269  0.00  0.00     0.036 A 
HETATM   28 Cl   UNK N   1      81.370  14.786  45.735  0.00  0.00    -0.084 Cl
HETATM   29  C   UNK N   1      83.963  15.558  45.820  0.00  0.00     0.026 A 
HETATM   30  C   UNK N   1      86.762  13.079  43.142  0.00  0.00     0.328 A 
HETATM   31  H   UNK N   1      84.994  12.010  42.633  0.00  0.00     0.171 HD
HETATM   32  O   UNK N   1      87.602  12.486  42.488  0.00  0.00    -0.247 OA
ENDBRANCH   1  21
TORSDOF 5
ENDMDL
MODEL 6
REMARK VINA RESULT:      -8.6     14.137     15.887
REMARK  5 active torsions:
REMARK  status: ('A' for Active; 'I' for Inactive)
REMARK    1  A    between atoms: N_10  and  C_12 
REMARK    2  A    between atoms: N_17  and  C_18 
REMARK    3  A    between atoms: C_18  and  C_19 
REMARK    4  A    between atoms: C_19  and  C_20 
REMARK    5  A    between atoms: C_20  and  N_21 
ROOT
HETATM    1  C   UNK N   1      89.427  12.587  39.729  0.00  0.00     0.098 C 
HETATM    2  C   UNK N   1      88.913  13.079  38.374  0.00  0.00     0.056 C 
HETATM    3  C   UNK N   1      90.819  11.973  39.563  0.00  0.00     0.056 C 
HETATM    4  C   UNK N   1      88.948  11.951  37.342  0.00  0.00     0.274 C 
HETATM    5  C   UNK N   1      90.796  10.877  38.498  0.00  0.00     0.274 C 
HETATM    6  N   UNK N   1      90.298  11.382  37.209  0.00  0.00     0.088 N 
ENDROOT
BRANCH   6   7
HETATM    7  C   UNK N   1      90.362  10.321  36.191  0.00  0.00     0.274 C 
BRANCH   7   8
HETATM    8  C   UNK N   1      91.733   9.655  36.030  0.00  0.00     0.050 C 
BRANCH   8   9
HETATM    9  C   UNK N   1      91.660   8.303  35.317  0.00  0.00     0.135 C 
BRANCH   9  10
HETATM   10  N   UNK N   1      92.037   8.421  33.930  0.00  0.00    -0.297 N 
HETATM   11  C   UNK N   1      91.179   8.829  32.888  0.00  0.00     0.327 A 
HETATM   12  O   UNK N   1      90.009   9.166  32.967  0.00  0.00    -0.247 OA
HETATM   13  N   UNK N   1      91.929   8.758  31.704  0.00  0.00    -0.306 N 
HETATM   14  C   UNK N   1      93.207   8.302  32.005  0.00  0.00     0.063 A 
HETATM   15  H   UNK N   1      91.562   8.995  30.798  0.00  0.00     0.171 HD
HETATM   16  C   UNK N   1      93.282   8.086  33.382  0.00  0.00     0.065 A 
HETATM   17  C   UNK N   1      94.267   8.069  31.159  0.00  0.00     0.032 A 
HETATM   18  C   UNK N   1      94.436   7.620  33.975  0.00  0.00     0.032 A 
HETATM   19  C   UNK N   1      95.530   7.375  33.136  0.00  0.00     0.002 A 
HETATM   20  C   UNK N   1      95.446   7.598  31.744  0.00  0.00     0.002 A 
ENDBRANCH   9  10
ENDBRANCH   8   9
ENDBRANCH   7   8
ENDBRANCH   6   7
BRANCH   1  21
HETATM   21  N   UNK N   1      89.398  13.636  40.736  0.00  0.00    -0.293 N 
HETATM   22  C   UNK N   1      88.614  13.625  41.904  0.00  0.00     0.066 A 
HETATM   23  C   UNK N   1      88.834  14.833  42.571  0.00  0.00     0.065 A 
HETATM   24  C   UNK N   1      87.751  12.678  42.414  0.00  0.00     0.034 A 
HETATM   25  C   UNK N   1      88.220  15.154  43.760  0.00  0.00     0.055 A 
HETATM   26  N   UNK N   1      89.734  15.584  41.827  0.00  0.00    -0.306 N 
HETATM   27  C   UNK N   1      87.345  14.201  44.284  0.00  0.00     0.036 A 
HETATM   28 Cl   UNK N   1      86.535  14.524  45.769  0.00  0.00    -0.084 Cl
HETATM   29  C   UNK N   1      87.110  12.977  43.624  0.00  0.00     0.026 A 
HETATM   30  C   UNK N   1      90.093  14.867  40.676  0.00  0.00     0.328 A 
HETATM   31  H   UNK N   1      90.085  16.504  42.035  0.00  0.00     0.171 HD
HETATM   32  O   UNK N   1      90.857  15.268  39.817  0.00  0.00    -0.247 OA
ENDBRANCH   1  21
TORSDOF 5
ENDMDL
MODEL 7
REMARK VINA RESULT:      -8.5     13.477     15.601
REMARK  5 active torsions:
REMARK  status: ('A' for Active; 'I' for Inactive)
REMARK    1  A    between atoms: N_10  and  C_12 
REMARK    2  A    between atoms: N_17  and  C_18 
REMARK    3  A    between atoms: C_18  and  C_19 
REMARK    4  A    between atoms: C_19  and  C_20 
REMARK    5  A    between atoms: C_20  and  N_21 
ROOT
HETATM    1  C   UNK N   1      91.518  11.134  37.837  0.00  0.00     0.098 C 
HETATM    2  C   UNK N   1      92.435  12.315  37.514  0.00  0.00     0.056 C 
HETATM    3  C   UNK N   1      91.344  11.011  39.353  0.00  0.00     0.056 C 
HETATM    4  C   UNK N   1      93.765  12.185  38.258  0.00  0.00     0.274 C 
HETATM    5  C   UNK N   1      92.706  10.917  40.041  0.00  0.00     0.274 C 
HETATM    6  N   UNK N   1      93.562  12.068  39.711  0.00  0.00     0.088 N 
ENDROOT
BRANCH   6   7
HETATM    7  C   UNK N   1      94.832  11.982  40.450  0.00  0.00     0.274 C 
BRANCH   7   8
HETATM    8  C   UNK N   1      94.906  12.835  41.721  0.00  0.00     0.050 C 
BRANCH   8   9
HETATM    9  C   UNK N   1      94.514  14.294  41.484  0.00  0.00     0.135 C 
BRANCH   9  10
HETATM   10  N   UNK N   1      93.492  14.719  42.409  0.00  0.00    -0.297 N 
HETATM   11  C   UNK N   1      93.700  14.989  43.778  0.00  0.00     0.327 A 
HETATM   12  O   UNK N   1      94.745  14.937  44.404  0.00  0.00    -0.247 OA
HETATM   13  N   UNK N   1      92.445  15.321  44.312  0.00  0.00    -0.306 N 
HETATM   14  C   UNK N   1      91.489  15.241  43.306  0.00  0.00     0.063 A 
HETATM   15  H   UNK N   1      92.297  15.562  45.278  0.00  0.00     0.171 HD
HETATM   16  C   UNK N   1      92.128  14.863  42.124  0.00  0.00     0.065 A 
HETATM   17  C   UNK N   1      90.134  15.467  43.376  0.00  0.00     0.032 A 
HETATM   18  C   UNK N   1      91.427  14.693  40.950  0.00  0.00     0.032 A 
HETATM   19  C   UNK N   1      90.045  14.918  40.994  0.00  0.00     0.002 A 
HETATM   20  C   UNK N   1      89.407  15.302  42.193  0.00  0.00     0.002 A 
ENDBRANCH   9  10
ENDBRANCH   8   9
ENDBRANCH   7   8
ENDBRANCH   6   7
BRANCH   1  21
HETATM   21  N   UNK N   1      90.247  11.223  37.136  0.00  0.00    -0.293 N 
HETATM   22  C   UNK N   1      89.820  10.366  36.106  0.00  0.00     0.066 A 
HETATM   23  C   UNK N   1      88.574  10.822  35.668  0.00  0.00     0.065 A 
HETATM   24  C   UNK N   1      90.412   9.258  35.538  0.00  0.00     0.034 A 
HETATM   25  C   UNK N   1      87.865  10.208  34.661  0.00  0.00     0.055 A 
HETATM   26  N   UNK N   1      88.236  11.946  36.407  0.00  0.00    -0.306 N 
HETATM   27  C   UNK N   1      88.457   9.085  34.080  0.00  0.00     0.036 A 
HETATM   28 Cl   UNK N   1      87.635   8.256  32.813  0.00  0.00    -0.084 Cl
HETATM   29  C   UNK N   1      89.714   8.612  34.510  0.00  0.00     0.026 A 
HETATM   30  C   UNK N   1      89.264  12.223  37.321  0.00  0.00     0.328 A 
HETATM   31  H   UNK N   1      87.407  12.511  36.323  0.00  0.00     0.171 HD
HETATM   32  O   UNK N   1      89.267  13.158  38.103  0.00  0.00    -0.247 OA
ENDBRANCH   1  21
TORSDOF 5
ENDMDL
MODEL 8
REMARK VINA RESULT:      -8.5     12.229     14.656
REMARK  5 active torsions:
REMARK  status: ('A' for Active; 'I' for Inactive)
REMARK    1  A    between atoms: N_10  and  C_12 
REMARK    2  A    between atoms: N_17  and  C_18 
REMARK    3  A    between atoms: C_18  and  C_19 
REMARK    4  A    between atoms: C_19  and  C_20 
REMARK    5  A    between atoms: C_20  and  N_21 
ROOT
HETATM    1  C   UNK N   1      92.351  13.350  40.316  0.00  0.00     0.098 C 
HETATM    2  C   UNK N   1      92.758  13.877  38.939  0.00  0.00     0.056 C 
HETATM    3  C   UNK N   1      92.684  11.859  40.420  0.00  0.00     0.056 C 
HETATM    4  C   UNK N   1      92.115  13.044  37.829  0.00  0.00     0.274 C 
HETATM    5  C   UNK N   1      92.041  11.087  39.268  0.00  0.00     0.274 C 
HETATM    6  N   UNK N   1      92.455  11.619  37.959  0.00  0.00     0.088 N 
ENDROOT
BRANCH   6   7
HETATM    7  C   UNK N   1      91.878  10.804  36.878  0.00  0.00     0.274 C 
BRANCH   7   8
HETATM    8  C   UNK N   1      90.613  10.024  37.253  0.00  0.00     0.050 C 
BRANCH   8   9
HETATM    9  C   UNK N   1      89.325  10.781  36.923  0.00  0.00     0.135 C 
BRANCH   9  10
HETATM   10  N   UNK N   1      88.379  10.705  38.009  0.00  0.00    -0.297 N 
HETATM   11  C   UNK N   1      87.450   9.662  38.204  0.00  0.00     0.327 A 
HETATM   12  O   UNK N   1      87.295   8.658  37.529  0.00  0.00    -0.247 OA
HETATM   13  N   UNK N   1      86.700  10.006  39.339  0.00  0.00    -0.306 N 
HETATM   14  C   UNK N   1      87.141  11.233  39.819  0.00  0.00     0.063 A 
HETATM   15  H   UNK N   1      85.959   9.435  39.710  0.00  0.00     0.171 HD
HETATM   16  C   UNK N   1      88.178  11.678  38.997  0.00  0.00     0.065 A 
HETATM   17  C   UNK N   1      86.687  11.958  40.897  0.00  0.00     0.032 A 
HETATM   18  C   UNK N   1      88.811  12.881  39.224  0.00  0.00     0.032 A 
HETATM   19  C   UNK N   1      88.368  13.637  40.317  0.00  0.00     0.002 A 
HETATM   20  C   UNK N   1      87.319  13.181  41.144  0.00  0.00     0.002 A 
ENDBRANCH   9  10
ENDBRANCH   8   9
ENDBRANCH   7   8
ENDBRANCH   6   7
BRANCH   1  21
HETATM   21  N   UNK N   1      92.939  14.128  41.394  0.00  0.00    -0.293 N 
HETATM   22  C   UNK N   1      92.251  15.047  42.208  0.00  0.00     0.066 A 
HETATM   23  C   UNK N   1      93.182  15.618  43.079  0.00  0.00     0.065 A 
HETATM   24  C   UNK N   1      90.923  15.415  42.246  0.00  0.00     0.034 A 
HETATM   25  C   UNK N   1      92.845  16.565  44.019  0.00  0.00     0.055 A 
HETATM   26  N   UNK N   1      94.428  15.069  42.808  0.00  0.00    -0.306 N 
HETATM   27  C   UNK N   1      91.502  16.943  44.065  0.00  0.00     0.036 A 
HETATM   28 Cl   UNK N   1      90.995  18.123  45.213  0.00  0.00    -0.084 Cl
HETATM   29  C   UNK N   1      90.549  16.378  43.193  0.00  0.00     0.026 A 
HETATM   30  C   UNK N   1      94.306  14.146  41.757  0.00  0.00     0.328 A 
HETATM   31  H   UNK N   1      95.304  15.281  43.255  0.00  0.00     0.171 HD
HETATM   32  O   UNK N   1      95.228  13.509  41.281  0.00  0.00    -0.247 OA
ENDBRANCH   1  21
TORSDOF 5
ENDMDL
MODEL 9
REMARK VINA RESULT:      -8.5     10.771     12.879
REMARK  5 active torsions:
REMARK  status: ('A' for Active; 'I' for Inactive)
REMARK    1  A    between atoms: N_10  and  C_12 
REMARK    2  A    between atoms: N_17  and  C_18 
REMARK    3  A    between atoms: C_18  and  C_19 
REMARK    4  A    between atoms: C_19  and  C_20 
REMARK    5  A    between atoms: C_20  and  N_21 
ROOT
HETATM    1  C   UNK N   1      87.849  14.798  43.820  0.00  0.00     0.098 C 
HETATM    2  C   UNK N   1      89.238  15.389  44.068  0.00  0.00     0.056 C 
HETATM    3  C   UNK N   1      87.944  13.665  42.794  0.00  0.00     0.056 C 
HETATM    4  C   UNK N   1      89.882  15.828  42.752  0.00  0.00     0.274 C 
HETATM    5  C   UNK N   1      88.622  14.156  41.517  0.00  0.00     0.274 C 
HETATM    6  N   UNK N   1      89.956  14.718  41.790  0.00  0.00     0.088 N 
ENDROOT
BRANCH   6   7
HETATM    7  C   UNK N   1      90.608  15.109  40.530  0.00  0.00     0.274 C 
BRANCH   7   8
HETATM    8  C   UNK N   1      90.624  14.029  39.442  0.00  0.00     0.050 C 
BRANCH   8   9
HETATM    9  C   UNK N   1      91.677  14.285  38.363  0.00  0.00     0.135 C 
BRANCH   9  10
HETATM   10  N   UNK N   1      92.635  13.209  38.301  0.00  0.00    -0.297 N 
HETATM   11  C   UNK N   1      92.434  11.981  37.637  0.00  0.00     0.327 A 
HETATM   12  O   UNK N   1      91.459  11.624  36.997  0.00  0.00    -0.247 OA
HETATM   13  N   UNK N   1      93.586  11.213  37.865  0.00  0.00    -0.306 N 
HETATM   14  C   UNK N   1      94.464  11.938  38.662  0.00  0.00     0.063 A 
HETATM   15  H   UNK N   1      93.715  10.283  37.504  0.00  0.00     0.171 HD
HETATM   16  C   UNK N   1      93.881  13.176  38.942  0.00  0.00     0.065 A 
HETATM   17  C   UNK N   1      95.701  11.577  39.144  0.00  0.00     0.032 A 
HETATM   18  C   UNK N   1      94.520  14.112  39.725  0.00  0.00     0.032 A 
HETATM   19  C   UNK N   1      95.782  13.768  40.227  0.00  0.00     0.002 A 
HETATM   20  C   UNK N   1      96.366  12.515  39.939  0.00  0.00     0.002 A 
ENDBRANCH   9  10
ENDBRANCH   8   9
ENDBRANCH   7   8
ENDBRANCH   6   7
BRANCH   1  21
HETATM   21  N   UNK N   1      87.206  14.379  45.055  0.00  0.00    -0.293 N 
HETATM   22  C   UNK N   1      86.010  14.907  45.574  0.00  0.00     0.066 A 
HETATM   23  C   UNK N   1      85.765  14.276  46.795  0.00  0.00     0.065 A 
HETATM   24  C   UNK N   1      85.149  15.866  45.083  0.00  0.00     0.034 A 
HETATM   25  C   UNK N   1      84.668  14.557  47.577  0.00  0.00     0.055 A 
HETATM   26  N   UNK N   1      86.793  13.375  47.035  0.00  0.00    -0.306 N 
HETATM   27  C   UNK N   1      83.790  15.526  47.087  0.00  0.00     0.036 A 
HETATM   28 Cl   UNK N   1      82.390  15.938  48.003  0.00  0.00    -0.084 Cl
HETATM   29  C   UNK N   1      84.022  16.174  45.856  0.00  0.00     0.026 A 
HETATM   30  C   UNK N   1      87.708  13.426  45.972  0.00  0.00     0.328 A 
HETATM   31  H   UNK N   1      86.912  12.776  47.835  0.00  0.00     0.171 HD
HETATM   32  O   UNK N   1      88.727  12.762  45.898  0.00  0.00    -0.247 OA
ENDBRANCH   1  21
TORSDOF 5
ENDMDL
