MODEL 1
REMARK VINA RESULT:      -7.5      0.000      0.000
REMARK  13 active torsions:
REMARK  status: ('A' for Active; 'I' for Inactive)
REMARK    1  A    between atoms: C_2  and  O_3 
REMARK    2  A    between atoms: C_2  and  C_4 
REMARK    3  A    between atoms: C_4  and  C_5 
REMARK    4  A    between atoms: C_5  and  C_6 
REMARK    5  A    between atoms: C_6  and  C_7 
REMARK    6  A    between atoms: C_14  and  C_16 
REMARK    7  A    between atoms: C_15  and  O_17 
REMARK    8  A    between atoms: C_18  and  C_19 
REMARK    9  A    between atoms: C_19  and  O_20 
REMARK   10  A    between atoms: C_19  and  C_21 
REMARK   11  A    between atoms: C_21  and  C_22 
REMARK   12  A    between atoms: C_22  and  C_23 
REMARK   13  A    between atoms: C_23  and  C_24 
ROOT
HETATM    1  C   UNK N   1      87.985  15.042  44.118  0.00  0.00     0.005 C 
HETATM    2  C   UNK N   1      87.015  14.630  44.944  0.00  0.00     0.043 C 
HETATM    3  O   UNK N   1      87.278  14.224  46.241  0.00  0.00    -0.350 OA
HETATM    4  C   UNK N   1      85.559  14.616  44.606  0.00  0.00     0.072 C 
HETATM    5  C   UNK N   1      86.009  13.921  46.842  0.00  0.00     0.136 C 
HETATM    6  C   UNK N   1      84.937  14.580  45.980  0.00  0.00     0.031 C 
HETATM    7  C   UNK N   1      85.922  14.566  48.226  0.00  0.00     0.065 C 
HETATM    8  C   UNK N   1      84.734  15.949  46.643  0.00  0.00     0.043 C 
HETATM    9  C   UNK N   1      84.780  15.577  48.131  0.00  0.00     0.128 C 
ENDROOT
BRANCH   8  10
HETATM   10  C   UNK N   1      83.438  16.605  46.242  0.00  0.00    -0.021 C 
HETATM   11  C   UNK N   1      83.304  17.927  46.044  0.00  0.00     0.001 C 
BRANCH  11  12
HETATM   12  C   UNK N   1      82.017  18.596  45.656  0.00  0.00     0.140 C 
BRANCH  12  13
HETATM   13  O   UNK N   1      80.980  18.008  46.433  0.00  0.00    -0.392 OA
HETATM   14  H   UNK N   1      80.298  17.685  45.821  0.00  0.00     0.210 HD
ENDBRANCH  12  13
BRANCH  12  15
HETATM   15  C   UNK N   1      82.073  20.109  45.901  0.00  0.00     0.036 C 
BRANCH  15  16
HETATM   16  C   UNK N   1      81.206  20.884  44.903  0.00  0.00     0.003 C 
BRANCH  16  17
HETATM   17  C   UNK N   1      82.000  22.006  44.231  0.00  0.00    -0.000 C 
BRANCH  17  18
HETATM   18  C   UNK N   1      82.928  22.703  45.225  0.00  0.00    -0.005 C 
HETATM   19  C   UNK N   1      82.420  24.091  45.583  0.00  0.00     0.005 C 
ENDBRANCH  17  18
ENDBRANCH  16  17
ENDBRANCH  15  16
ENDBRANCH  12  15
ENDBRANCH  11  12
ENDBRANCH   8  10
BRANCH   9  20
HETATM   20  O   UNK N   1      85.038  16.699  48.958  0.00  0.00    -0.395 OA
HETATM   21  H   UNK N   1      85.911  17.049  48.705  0.00  0.00     0.210 HD
ENDBRANCH   9  20
BRANCH   1  22
HETATM   22  C   UNK N   1      89.446  15.095  44.462  0.00  0.00     0.030 C 
BRANCH  22  23
HETATM   23  C   UNK N   1      90.130  16.283  43.785  0.00  0.00     0.014 C 
BRANCH  23  24
HETATM   24  C   UNK N   1      91.050  17.017  44.758  0.00  0.00     0.110 C 
BRANCH  24  25
HETATM   25  C   UNK N   1      91.118  18.489  44.454  0.00  0.00     0.139 C 
HETATM   26  O   UNK N   1      91.147  19.023  43.360  0.00  0.00    -0.650 OA
BRANCH  25  27
HETATM   27  O   UNK N   1      91.131  19.232  45.579  0.00  0.00    -0.776 OA
HETATM   28  H   UNK N   1      91.077  18.571  46.299  0.00  0.00     0.167 HD
ENDBRANCH  25  27
ENDBRANCH  24  25
ENDBRANCH  23  24
ENDBRANCH  22  23
ENDBRANCH   1  22
TORSDOF 13
ENDMDL
MODEL 2
REMARK VINA RESULT:      -7.3      1.757      3.041
REMARK  13 active torsions:
REMARK  status: ('A' for Active; 'I' for Inactive)
REMARK    1  A    between atoms: C_2  and  O_3 
REMARK    2  A    between atoms: C_2  and  C_4 
REMARK    3  A    between atoms: C_4  and  C_5 
REMARK    4  A    between atoms: C_5  and  C_6 
REMARK    5  A    between atoms: C_6  and  C_7 
REMARK    6  A    between atoms: C_14  and  C_16 
REMARK    7  A    between atoms: C_15  and  O_17 
REMARK    8  A    between atoms: C_18  and  C_19 
REMARK    9  A    between atoms: C_19  and  O_20 
REMARK   10  A    between atoms: C_19  and  C_21 
REMARK   11  A    between atoms: C_21  and  C_22 
REMARK   12  A    between atoms: C_22  and  C_23 
REMARK   13  A    between atoms: C_23  and  C_24 
ROOT
HETATM    1  C   UNK N   1      88.163  15.018  44.228  0.00  0.00     0.005 C 
HETATM    2  C   UNK N   1      87.161  14.614  45.019  0.00  0.00     0.043 C 
HETATM    3  O   UNK N   1      87.378  14.185  46.318  0.00  0.00    -0.350 OA
HETATM    4  C   UNK N   1      85.716  14.630  44.637  0.00  0.00     0.072 C 
HETATM    5  C   UNK N   1      86.086  13.897  46.876  0.00  0.00     0.136 C 
HETATM    6  C   UNK N   1      85.053  14.587  45.991  0.00  0.00     0.031 C 
HETATM    7  C   UNK N   1      85.969  14.526  48.266  0.00  0.00     0.065 C 
HETATM    8  C   UNK N   1      84.853  15.950  46.667  0.00  0.00     0.043 C 
HETATM    9  C   UNK N   1      84.848  15.558  48.151  0.00  0.00     0.128 C 
ENDROOT
BRANCH   8  10
HETATM   10  C   UNK N   1      83.581  16.635  46.236  0.00  0.00    -0.021 C 
HETATM   11  C   UNK N   1      83.500  17.948  45.963  0.00  0.00     0.001 C 
BRANCH  11  12
HETATM   12  C   UNK N   1      82.238  18.645  45.544  0.00  0.00     0.140 C 
BRANCH  12  13
HETATM   13  O   UNK N   1      82.582  19.985  45.212  0.00  0.00    -0.392 OA
HETATM   14  H   UNK N   1      83.422  19.963  44.722  0.00  0.00     0.210 HD
ENDBRANCH  12  13
BRANCH  12  15
HETATM   15  C   UNK N   1      81.583  17.950  44.344  0.00  0.00     0.036 C 
BRANCH  15  16
HETATM   16  C   UNK N   1      80.290  17.226  44.737  0.00  0.00     0.003 C 
BRANCH  16  17
HETATM   17  C   UNK N   1      80.264  15.799  44.187  0.00  0.00    -0.000 C 
BRANCH  17  18
HETATM   18  C   UNK N   1      81.545  15.475  43.419  0.00  0.00    -0.005 C 
HETATM   19  C   UNK N   1      82.133  14.142  43.853  0.00  0.00     0.005 C 
ENDBRANCH  17  18
ENDBRANCH  16  17
ENDBRANCH  15  16
ENDBRANCH  12  15
ENDBRANCH  11  12
ENDBRANCH   8  10
BRANCH   9  20
HETATM   20  O   UNK N   1      85.100  16.664  49.000  0.00  0.00    -0.395 OA
HETATM   21  H   UNK N   1      84.278  16.844  49.491  0.00  0.00     0.210 HD
ENDBRANCH   9  20
BRANCH   1  22
HETATM   22  C   UNK N   1      89.614  15.040  44.617  0.00  0.00     0.030 C 
BRANCH  22  23
HETATM   23  C   UNK N   1      90.362  16.161  43.893  0.00  0.00     0.014 C 
BRANCH  23  24
HETATM   24  C   UNK N   1      91.058  17.089  44.886  0.00  0.00     0.110 C 
BRANCH  24  25
HETATM   25  C   UNK N   1      91.117  18.503  44.374  0.00  0.00     0.139 C 
HETATM   26  O   UNK N   1      91.134  18.875  43.214  0.00  0.00    -0.650 OA
BRANCH  25  27
HETATM   27  O   UNK N   1      91.137  19.399  45.381  0.00  0.00    -0.776 OA
HETATM   28  H   UNK N   1      91.853  19.079  45.967  0.00  0.00     0.167 HD
ENDBRANCH  25  27
ENDBRANCH  24  25
ENDBRANCH  23  24
ENDBRANCH  22  23
ENDBRANCH   1  22
TORSDOF 13
ENDMDL
MODEL 3
REMARK VINA RESULT:      -7.2      4.185      9.850
REMARK  13 active torsions:
REMARK  status: ('A' for Active; 'I' for Inactive)
REMARK    1  A    between atoms: C_2  and  O_3 
REMARK    2  A    between atoms: C_2  and  C_4 
REMARK    3  A    between atoms: C_4  and  C_5 
REMARK    4  A    between atoms: C_5  and  C_6 
REMARK    5  A    between atoms: C_6  and  C_7 
REMARK    6  A    between atoms: C_14  and  C_16 
REMARK    7  A    between atoms: C_15  and  O_17 
REMARK    8  A    between atoms: C_18  and  C_19 
REMARK    9  A    between atoms: C_19  and  O_20 
REMARK   10  A    between atoms: C_19  and  C_21 
REMARK   11  A    between atoms: C_21  and  C_22 
REMARK   12  A    between atoms: C_22  and  C_23 
REMARK   13  A    between atoms: C_23  and  C_24 
ROOT
HETATM    1  C   UNK N   1      88.024  14.022  44.265  0.00  0.00     0.005 C 
HETATM    2  C   UNK N   1      88.876  14.944  43.800  0.00  0.00     0.043 C 
HETATM    3  O   UNK N   1      89.466  15.884  44.629  0.00  0.00    -0.350 OA
HETATM    4  C   UNK N   1      89.335  15.039  42.381  0.00  0.00     0.072 C 
HETATM    5  C   UNK N   1      90.358  16.654  43.808  0.00  0.00     0.136 C 
HETATM    6  C   UNK N   1      90.598  15.851  42.533  0.00  0.00     0.031 C 
HETATM    7  C   UNK N   1      91.712  16.797  44.503  0.00  0.00     0.065 C 
HETATM    8  C   UNK N   1      91.863  15.042  42.852  0.00  0.00     0.043 C 
HETATM    9  C   UNK N   1      92.712  16.082  43.595  0.00  0.00     0.128 C 
ENDROOT
BRANCH   8  10
HETATM   10  C   UNK N   1      92.539  14.505  41.617  0.00  0.00    -0.021 C 
HETATM   11  C   UNK N   1      93.083  13.279  41.540  0.00  0.00     0.001 C 
BRANCH  11  12
HETATM   12  C   UNK N   1      93.770  12.736  40.320  0.00  0.00     0.140 C 
BRANCH  12  13
HETATM   13  O   UNK N   1      93.029  11.603  39.883  0.00  0.00    -0.392 OA
HETATM   14  H   UNK N   1      92.085  11.828  39.933  0.00  0.00     0.210 HD
ENDBRANCH  12  13
BRANCH  12  15
HETATM   15  C   UNK N   1      93.847  13.786  39.205  0.00  0.00     0.036 C 
BRANCH  15  16
HETATM   16  C   UNK N   1      92.844  13.503  38.081  0.00  0.00     0.003 C 
BRANCH  16  17
HETATM   17  C   UNK N   1      91.593  14.373  38.221  0.00  0.00    -0.000 C 
BRANCH  17  18
HETATM   18  C   UNK N   1      90.353  13.523  38.497  0.00  0.00    -0.005 C 
HETATM   19  C   UNK N   1      90.409  12.197  37.755  0.00  0.00     0.005 C 
ENDBRANCH  17  18
ENDBRANCH  16  17
ENDBRANCH  15  16
ENDBRANCH  12  15
ENDBRANCH  11  12
ENDBRANCH   8  10
BRANCH   9  20
HETATM   20  O   UNK N   1      93.744  15.485  44.362  0.00  0.00    -0.395 OA
HETATM   21  H   UNK N   1      94.532  16.050  44.273  0.00  0.00     0.210 HD
ENDBRANCH   9  20
BRANCH   1  22
HETATM   22  C   UNK N   1      87.586  13.896  45.697  0.00  0.00     0.030 C 
BRANCH  22  23
HETATM   23  C   UNK N   1      86.064  13.789  45.800  0.00  0.00     0.014 C 
BRANCH  23  24
HETATM   24  C   UNK N   1      85.379  14.605  44.706  0.00  0.00     0.110 C 
BRANCH  24  25
HETATM   25  C   UNK N   1      84.699  15.824  45.267  0.00  0.00     0.139 C 
HETATM   26  O   UNK N   1      84.075  15.915  46.309  0.00  0.00    -0.650 OA
BRANCH  25  27
HETATM   27  O   UNK N   1      84.859  16.899  44.469  0.00  0.00    -0.776 OA
HETATM   28  H   UNK N   1      83.946  17.215  44.314  0.00  0.00     0.167 HD
ENDBRANCH  25  27
ENDBRANCH  24  25
ENDBRANCH  23  24
ENDBRANCH  22  23
ENDBRANCH   1  22
TORSDOF 13
ENDMDL
MODEL 4
REMARK VINA RESULT:      -7.2      7.929     11.665
REMARK  13 active torsions:
REMARK  status: ('A' for Active; 'I' for Inactive)
REMARK    1  A    between atoms: C_2  and  O_3 
REMARK    2  A    between atoms: C_2  and  C_4 
REMARK    3  A    between atoms: C_4  and  C_5 
REMARK    4  A    between atoms: C_5  and  C_6 
REMARK    5  A    between atoms: C_6  and  C_7 
REMARK    6  A    between atoms: C_14  and  C_16 
REMARK    7  A    between atoms: C_15  and  O_17 
REMARK    8  A    between atoms: C_18  and  C_19 
REMARK    9  A    between atoms: C_19  and  O_20 
REMARK   10  A    between atoms: C_19  and  C_21 
REMARK   11  A    between atoms: C_21  and  C_22 
REMARK   12  A    between atoms: C_22  and  C_23 
REMARK   13  A    between atoms: C_23  and  C_24 
ROOT
HETATM    1  C   UNK N   1      95.174  10.959  38.539  0.00  0.00     0.005 C 
HETATM    2  C   UNK N   1      94.548  12.140  38.619  0.00  0.00     0.043 C 
HETATM    3  O   UNK N   1      93.564  12.511  37.718  0.00  0.00    -0.350 OA
HETATM    4  C   UNK N   1      94.776  13.153  39.693  0.00  0.00     0.072 C 
HETATM    5  C   UNK N   1      93.077  13.793  38.146  0.00  0.00     0.136 C 
HETATM    6  C   UNK N   1      93.514  13.975  39.597  0.00  0.00     0.031 C 
HETATM    7  C   UNK N   1      91.547  13.796  38.142  0.00  0.00     0.065 C 
HETATM    8  C   UNK N   1      92.321  13.442  40.401  0.00  0.00     0.043 C 
HETATM    9  C   UNK N   1      91.138  14.000  39.600  0.00  0.00     0.128 C 
ENDROOT
BRANCH   8  10
HETATM   10  C   UNK N   1      92.330  13.905  41.836  0.00  0.00    -0.021 C 
HETATM   11  C   UNK N   1      93.171  14.840  42.309  0.00  0.00     0.001 C 
BRANCH  11  12
HETATM   12  C   UNK N   1      93.199  15.303  43.737  0.00  0.00     0.140 C 
BRANCH  12  13
HETATM   13  O   UNK N   1      94.563  15.370  44.136  0.00  0.00    -0.392 OA
HETATM   14  H   UNK N   1      94.890  14.460  44.228  0.00  0.00     0.210 HD
ENDBRANCH  12  13
BRANCH  12  15
HETATM   15  C   UNK N   1      92.529  16.673  43.898  0.00  0.00     0.036 C 
BRANCH  15  16
HETATM   16  C   UNK N   1      91.131  16.558  44.515  0.00  0.00     0.003 C 
BRANCH  16  17
HETATM   17  C   UNK N   1      90.054  16.445  43.434  0.00  0.00    -0.000 C 
BRANCH  17  18
HETATM   18  C   UNK N   1      89.008  15.392  43.798  0.00  0.00    -0.005 C 
HETATM   19  C   UNK N   1      89.517  14.452  44.880  0.00  0.00     0.005 C 
ENDBRANCH  17  18
ENDBRANCH  16  17
ENDBRANCH  15  16
ENDBRANCH  12  15
ENDBRANCH  11  12
ENDBRANCH   8  10
BRANCH   9  20
HETATM   20  O   UNK N   1      89.928  13.315  39.878  0.00  0.00    -0.395 OA
HETATM   21  H   UNK N   1      89.228  13.987  39.960  0.00  0.00     0.210 HD
ENDBRANCH   9  20
BRANCH   1  22
HETATM   22  C   UNK N   1      94.925   9.919  37.484  0.00  0.00     0.030 C 
BRANCH  22  23
HETATM   23  C   UNK N   1      96.225   9.227  37.074  0.00  0.00     0.014 C 
BRANCH  23  24
HETATM   24  C   UNK N   1      96.125   8.661  35.659  0.00  0.00     0.110 C 
BRANCH  24  25
HETATM   25  C   UNK N   1      97.288   9.090  34.807  0.00  0.00     0.139 C 
HETATM   26  O   UNK N   1      98.468   8.834  34.974  0.00  0.00    -0.650 OA
BRANCH  25  27
HETATM   27  O   UNK N   1      96.891   9.828  33.752  0.00  0.00    -0.776 OA
HETATM   28  H   UNK N   1      96.237   9.258  33.298  0.00  0.00     0.167 HD
ENDBRANCH  25  27
ENDBRANCH  24  25
ENDBRANCH  23  24
ENDBRANCH  22  23
ENDBRANCH   1  22
TORSDOF 13
ENDMDL
MODEL 5
REMARK VINA RESULT:      -7.1      6.956     13.087
REMARK  13 active torsions:
REMARK  status: ('A' for Active; 'I' for Inactive)
REMARK    1  A    between atoms: C_2  and  O_3 
REMARK    2  A    between atoms: C_2  and  C_4 
REMARK    3  A    between atoms: C_4  and  C_5 
REMARK    4  A    between atoms: C_5  and  C_6 
REMARK    5  A    between atoms: C_6  and  C_7 
REMARK    6  A    between atoms: C_14  and  C_16 
REMARK    7  A    between atoms: C_15  and  O_17 
REMARK    8  A    between atoms: C_18  and  C_19 
REMARK    9  A    between atoms: C_19  and  O_20 
REMARK   10  A    between atoms: C_19  and  C_21 
REMARK   11  A    between atoms: C_21  and  C_22 
REMARK   12  A    between atoms: C_22  and  C_23 
REMARK   13  A    between atoms: C_23  and  C_24 
ROOT
HETATM    1  C   UNK N   1      92.458  15.504  42.858  0.00  0.00     0.005 C 
HETATM    2  C   UNK N   1      93.136  14.404  42.507  0.00  0.00     0.043 C 
HETATM    3  O   UNK N   1      92.530  13.348  41.848  0.00  0.00    -0.350 OA
HETATM    4  C   UNK N   1      94.602  14.205  42.717  0.00  0.00     0.072 C 
HETATM    5  C   UNK N   1      93.563  12.386  41.577  0.00  0.00     0.136 C 
HETATM    6  C   UNK N   1      94.897  13.111  41.721  0.00  0.00     0.031 C 
HETATM    7  C   UNK N   1      93.468  11.918  40.125  0.00  0.00     0.065 C 
HETATM    8  C   UNK N   1      95.202  13.588  40.295  0.00  0.00     0.043 C 
HETATM    9  C   UNK N   1      94.771  12.372  39.466  0.00  0.00     0.128 C 
ENDROOT
BRANCH   8  10
HETATM   10  C   UNK N   1      96.653  13.949  40.097  0.00  0.00    -0.021 C 
HETATM   11  C   UNK N   1      97.591  13.803  41.048  0.00  0.00     0.001 C 
BRANCH  11  12
HETATM   12  C   UNK N   1      99.036  14.169  40.870  0.00  0.00     0.140 C 
BRANCH  12  13
HETATM   13  O   UNK N   1      99.116  15.058  39.762  0.00  0.00    -0.392 OA
HETATM   14  H   UNK N   1      98.418  14.812  39.133  0.00  0.00     0.210 HD
ENDBRANCH  12  13
BRANCH  12  15
HETATM   15  C   UNK N   1      99.608  14.832  42.129  0.00  0.00     0.036 C 
BRANCH  15  16
HETATM   16  C   UNK N   1     101.116  14.598  42.265  0.00  0.00     0.003 C 
BRANCH  16  17
HETATM   17  C   UNK N   1     101.696  15.388  43.440  0.00  0.00    -0.000 C 
BRANCH  17  18
HETATM   18  C   UNK N   1     100.795  16.563  43.820  0.00  0.00    -0.005 C 
HETATM   19  C   UNK N   1     101.604  17.822  44.090  0.00  0.00     0.005 C 
ENDBRANCH  17  18
ENDBRANCH  16  17
ENDBRANCH  15  16
ENDBRANCH  12  15
ENDBRANCH  11  12
ENDBRANCH   8  10
BRANCH   9  20
HETATM   20  O   UNK N   1      94.552  12.698  38.104  0.00  0.00    -0.395 OA
HETATM   21  H   UNK N   1      94.743  13.648  38.002  0.00  0.00     0.210 HD
ENDBRANCH   9  20
BRANCH   1  22
HETATM   22  C   UNK N   1      90.992  15.728  42.617  0.00  0.00     0.030 C 
BRANCH  22  23
HETATM   23  C   UNK N   1      90.433  16.788  43.567  0.00  0.00     0.014 C 
BRANCH  23  24
HETATM   24  C   UNK N   1      91.556  17.608  44.199  0.00  0.00     0.110 C 
BRANCH  24  25
HETATM   25  C   UNK N   1      91.227  19.076  44.216  0.00  0.00     0.139 C 
HETATM   26  O   UNK N   1      90.996  19.799  43.262  0.00  0.00    -0.650 OA
BRANCH  25  27
HETATM   27  O   UNK N   1      91.191  19.568  45.471  0.00  0.00    -0.776 OA
HETATM   28  H   UNK N   1      90.294  19.953  45.548  0.00  0.00     0.167 HD
ENDBRANCH  25  27
ENDBRANCH  24  25
ENDBRANCH  23  24
ENDBRANCH  22  23
ENDBRANCH   1  22
TORSDOF 13
ENDMDL
MODEL 6
REMARK VINA RESULT:      -7.1      4.379     10.159
REMARK  13 active torsions:
REMARK  status: ('A' for Active; 'I' for Inactive)
REMARK    1  A    between atoms: C_2  and  O_3 
REMARK    2  A    between atoms: C_2  and  C_4 
REMARK    3  A    between atoms: C_4  and  C_5 
REMARK    4  A    between atoms: C_5  and  C_6 
REMARK    5  A    between atoms: C_6  and  C_7 
REMARK    6  A    between atoms: C_14  and  C_16 
REMARK    7  A    between atoms: C_15  and  O_17 
REMARK    8  A    between atoms: C_18  and  C_19 
REMARK    9  A    between atoms: C_19  and  O_20 
REMARK   10  A    between atoms: C_19  and  C_21 
REMARK   11  A    between atoms: C_21  and  C_22 
REMARK   12  A    between atoms: C_22  and  C_23 
REMARK   13  A    between atoms: C_23  and  C_24 
ROOT
HETATM    1  C   UNK N   1      87.609  14.323  44.290  0.00  0.00     0.005 C 
HETATM    2  C   UNK N   1      88.638  15.091  43.911  0.00  0.00     0.043 C 
HETATM    3  O   UNK N   1      89.543  15.610  44.823  0.00  0.00    -0.350 OA
HETATM    4  C   UNK N   1      88.972  15.428  42.494  0.00  0.00     0.072 C 
HETATM    5  C   UNK N   1      90.535  16.317  44.061  0.00  0.00     0.136 C 
HETATM    6  C   UNK N   1      90.420  15.832  42.619  0.00  0.00     0.031 C 
HETATM    7  C   UNK N   1      91.933  15.934  44.547  0.00  0.00     0.065 C 
HETATM    8  C   UNK N   1      91.431  14.680  42.547  0.00  0.00     0.043 C 
HETATM    9  C   UNK N   1      92.603  15.249  43.357  0.00  0.00     0.128 C 
ENDROOT
BRANCH   8  10
HETATM   10  C   UNK N   1      91.812  14.326  41.132  0.00  0.00    -0.021 C 
HETATM   11  C   UNK N   1      91.015  13.637  40.298  0.00  0.00     0.001 C 
BRANCH  11  12
HETATM   12  C   UNK N   1      91.386  13.267  38.891  0.00  0.00     0.140 C 
BRANCH  12  13
HETATM   13  O   UNK N   1      90.337  13.716  38.041  0.00  0.00    -0.392 OA
HETATM   14  H   UNK N   1      90.519  14.642  37.810  0.00  0.00     0.210 HD
ENDBRANCH  12  13
BRANCH  12  15
HETATM   15  C   UNK N   1      92.718  13.903  38.475  0.00  0.00     0.036 C 
BRANCH  15  16
HETATM   16  C   UNK N   1      93.768  12.849  38.108  0.00  0.00     0.003 C 
BRANCH  16  17
HETATM   17  C   UNK N   1      94.283  12.121  39.352  0.00  0.00    -0.000 C 
BRANCH  17  18
HETATM   18  C   UNK N   1      95.789  12.314  39.526  0.00  0.00    -0.005 C 
HETATM   19  C   UNK N   1      96.118  13.711  40.028  0.00  0.00     0.005 C 
ENDBRANCH  17  18
ENDBRANCH  16  17
ENDBRANCH  15  16
ENDBRANCH  12  15
ENDBRANCH  11  12
ENDBRANCH   8  10
BRANCH   9  20
HETATM   20  O   UNK N   1      93.493  14.238  43.799  0.00  0.00    -0.395 OA
HETATM   21  H   UNK N   1      93.700  14.426  44.733  0.00  0.00     0.210 HD
ENDBRANCH   9  20
BRANCH   1  22
HETATM   22  C   UNK N   1      87.288  13.949  45.709  0.00  0.00     0.030 C 
BRANCH  22  23
HETATM   23  C   UNK N   1      85.881  14.408  46.095  0.00  0.00     0.014 C 
BRANCH  23  24
HETATM   24  C   UNK N   1      85.384  15.506  45.159  0.00  0.00     0.110 C 
BRANCH  24  25
HETATM   25  C   UNK N   1      84.537  16.514  45.887  0.00  0.00     0.139 C 
HETATM   26  O   UNK N   1      84.291  16.557  47.080  0.00  0.00    -0.650 OA
BRANCH  25  27
HETATM   27  O   UNK N   1      84.041  17.449  45.053  0.00  0.00    -0.776 OA
HETATM   28  H   UNK N   1      83.476  18.003  45.629  0.00  0.00     0.167 HD
ENDBRANCH  25  27
ENDBRANCH  24  25
ENDBRANCH  23  24
ENDBRANCH  22  23
ENDBRANCH   1  22
TORSDOF 13
ENDMDL
MODEL 7
REMARK VINA RESULT:      -7.0      4.518      9.975
REMARK  13 active torsions:
REMARK  status: ('A' for Active; 'I' for Inactive)
REMARK    1  A    between atoms: C_2  and  O_3 
REMARK    2  A    between atoms: C_2  and  C_4 
REMARK    3  A    between atoms: C_4  and  C_5 
REMARK    4  A    between atoms: C_5  and  C_6 
REMARK    5  A    between atoms: C_6  and  C_7 
REMARK    6  A    between atoms: C_14  and  C_16 
REMARK    7  A    between atoms: C_15  and  O_17 
REMARK    8  A    between atoms: C_18  and  C_19 
REMARK    9  A    between atoms: C_19  and  O_20 
REMARK   10  A    between atoms: C_19  and  C_21 
REMARK   11  A    between atoms: C_21  and  C_22 
REMARK   12  A    between atoms: C_22  and  C_23 
REMARK   13  A    between atoms: C_23  and  C_24 
ROOT
HETATM    1  C   UNK N   1      82.479  27.017  45.196  0.00  0.00     0.005 C 
HETATM    2  C   UNK N   1      81.820  25.875  45.431  0.00  0.00     0.043 C 
HETATM    3  O   UNK N   1      80.749  25.472  44.651  0.00  0.00    -0.350 OA
HETATM    4  C   UNK N   1      82.182  24.887  46.492  0.00  0.00     0.072 C 
HETATM    5  C   UNK N   1      80.341  24.187  45.147  0.00  0.00     0.136 C 
HETATM    6  C   UNK N   1      81.495  23.644  45.984  0.00  0.00     0.031 C 
HETATM    7  C   UNK N   1      80.146  23.217  43.980  0.00  0.00     0.065 C 
HETATM    8  C   UNK N   1      82.305  22.810  44.981  0.00  0.00     0.043 C 
HETATM    9  C   UNK N   1      81.189  22.120  44.186  0.00  0.00     0.128 C 
ENDROOT
BRANCH   8  10
HETATM   10  C   UNK N   1      83.238  21.835  45.651  0.00  0.00    -0.021 C 
HETATM   11  C   UNK N   1      82.844  20.650  46.148  0.00  0.00     0.001 C 
BRANCH  11  12
HETATM   12  C   UNK N   1      83.760  19.675  46.828  0.00  0.00     0.140 C 
BRANCH  12  13
HETATM   13  O   UNK N   1      84.516  20.400  47.791  0.00  0.00    -0.392 OA
HETATM   14  H   UNK N   1      85.293  20.770  47.341  0.00  0.00     0.210 HD
ENDBRANCH  12  13
BRANCH  12  15
HETATM   15  C   UNK N   1      82.975  18.546  47.508  0.00  0.00     0.036 C 
BRANCH  15  16
HETATM   16  C   UNK N   1      82.958  17.269  46.660  0.00  0.00     0.003 C 
BRANCH  16  17
HETATM   17  C   UNK N   1      84.121  17.247  45.666  0.00  0.00    -0.000 C 
BRANCH  17  18
HETATM   18  C   UNK N   1      84.334  15.847  45.090  0.00  0.00    -0.005 C 
HETATM   19  C   UNK N   1      85.569  15.184  45.680  0.00  0.00     0.005 C 
ENDBRANCH  17  18
ENDBRANCH  16  17
ENDBRANCH  15  16
ENDBRANCH  12  15
ENDBRANCH  11  12
ENDBRANCH   8  10
BRANCH   9  20
HETATM   20  O   UNK N   1      81.644  21.626  42.938  0.00  0.00    -0.395 OA
HETATM   21  H   UNK N   1      81.680  20.654  43.008  0.00  0.00     0.210 HD
ENDBRANCH   9  20
BRANCH   1  22
HETATM   22  C   UNK N   1      82.145  27.998  44.108  0.00  0.00     0.030 C 
BRANCH  22  23
HETATM   23  C   UNK N   1      83.130  29.168  44.099  0.00  0.00     0.014 C 
BRANCH  23  24
HETATM   24  C   UNK N   1      83.539  29.532  42.674  0.00  0.00     0.110 C 
BRANCH  24  25
HETATM   25  C   UNK N   1      84.596  28.600  42.146  0.00  0.00     0.139 C 
HETATM   26  O   UNK N   1      84.614  28.025  41.072  0.00  0.00    -0.650 OA
BRANCH  25  27
HETATM   27  O   UNK N   1      85.612  28.449  43.019  0.00  0.00    -0.776 OA
HETATM   28  H   UNK N   1      85.349  27.672  43.555  0.00  0.00     0.167 HD
ENDBRANCH  25  27
ENDBRANCH  24  25
ENDBRANCH  23  24
ENDBRANCH  22  23
ENDBRANCH   1  22
TORSDOF 13
ENDMDL
MODEL 8
REMARK VINA RESULT:      -7.0      5.297      9.349
REMARK  13 active torsions:
REMARK  status: ('A' for Active; 'I' for Inactive)
REMARK    1  A    between atoms: C_2  and  O_3 
REMARK    2  A    between atoms: C_2  and  C_4 
REMARK    3  A    between atoms: C_4  and  C_5 
REMARK    4  A    between atoms: C_5  and  C_6 
REMARK    5  A    between atoms: C_6  and  C_7 
REMARK    6  A    between atoms: C_14  and  C_16 
REMARK    7  A    between atoms: C_15  and  O_17 
REMARK    8  A    between atoms: C_18  and  C_19 
REMARK    9  A    between atoms: C_19  and  O_20 
REMARK   10  A    between atoms: C_19  and  C_21 
REMARK   11  A    between atoms: C_21  and  C_22 
REMARK   12  A    between atoms: C_22  and  C_23 
REMARK   13  A    between atoms: C_23  and  C_24 
ROOT
HETATM    1  C   UNK N   1      80.801  23.518  39.011  0.00  0.00     0.005 C 
HETATM    2  C   UNK N   1      80.271  22.647  39.879  0.00  0.00     0.043 C 
HETATM    3  O   UNK N   1      80.139  21.301  39.580  0.00  0.00    -0.350 OA
HETATM    4  C   UNK N   1      79.826  22.990  41.263  0.00  0.00     0.072 C 
HETATM    5  C   UNK N   1      79.602  20.671  40.754  0.00  0.00     0.136 C 
HETATM    6  C   UNK N   1      79.824  21.631  41.919  0.00  0.00     0.031 C 
HETATM    7  C   UNK N   1      80.393  19.401  41.070  0.00  0.00     0.065 C 
HETATM    8  C   UNK N   1      81.172  21.183  42.501  0.00  0.00     0.043 C 
HETATM    9  C   UNK N   1      81.043  19.656  42.430  0.00  0.00     0.128 C 
ENDROOT
BRANCH   8  10
HETATM   10  C   UNK N   1      81.399  21.688  43.903  0.00  0.00    -0.021 C 
HETATM   11  C   UNK N   1      82.617  21.892  44.431  0.00  0.00     0.001 C 
BRANCH  11  12
HETATM   12  C   UNK N   1      82.858  22.384  45.829  0.00  0.00     0.140 C 
BRANCH  12  13
HETATM   13  O   UNK N   1      82.002  23.499  46.042  0.00  0.00    -0.392 OA
HETATM   14  H   UNK N   1      82.531  24.306  45.923  0.00  0.00     0.210 HD
ENDBRANCH  12  13
BRANCH  12  15
HETATM   15  C   UNK N   1      82.576  21.289  46.866  0.00  0.00     0.036 C 
BRANCH  15  16
HETATM   16  C   UNK N   1      83.788  20.375  47.080  0.00  0.00     0.003 C 
BRANCH  16  17
HETATM   17  C   UNK N   1      83.358  18.988  47.560  0.00  0.00    -0.000 C 
BRANCH  17  18
HETATM   18  C   UNK N   1      82.912  18.108  46.393  0.00  0.00    -0.005 C 
HETATM   19  C   UNK N   1      84.065  17.279  45.848  0.00  0.00     0.005 C 
ENDBRANCH  17  18
ENDBRANCH  16  17
ENDBRANCH  15  16
ENDBRANCH  12  15
ENDBRANCH  11  12
ENDBRANCH   8  10
BRANCH   9  20
HETATM   20  O   UNK N   1      82.300  19.005  42.511  0.00  0.00    -0.395 OA
HETATM   21  H   UNK N   1      82.125  18.050  42.597  0.00  0.00     0.210 HD
ENDBRANCH   9  20
BRANCH   1  22
HETATM   22  C   UNK N   1      81.286  23.174  37.631  0.00  0.00     0.030 C 
BRANCH  22  23
HETATM   23  C   UNK N   1      82.003  24.361  36.988  0.00  0.00     0.014 C 
BRANCH  23  24
HETATM   24  C   UNK N   1      83.105  24.898  37.899  0.00  0.00     0.110 C 
BRANCH  24  25
HETATM   25  C   UNK N   1      84.441  24.905  37.207  0.00  0.00     0.139 C 
HETATM   26  O   UNK N   1      85.379  24.150  37.391  0.00  0.00    -0.650 OA
BRANCH  25  27
HETATM   27  O   UNK N   1      84.522  25.884  36.283  0.00  0.00    -0.776 OA
HETATM   28  H   UNK N   1      84.482  25.406  35.429  0.00  0.00     0.167 HD
ENDBRANCH  25  27
ENDBRANCH  24  25
ENDBRANCH  23  24
ENDBRANCH  22  23
ENDBRANCH   1  22
TORSDOF 13
ENDMDL
MODEL 9
REMARK VINA RESULT:      -7.0      6.599      9.078
REMARK  13 active torsions:
REMARK  status: ('A' for Active; 'I' for Inactive)
REMARK    1  A    between atoms: C_2  and  O_3 
REMARK    2  A    between atoms: C_2  and  C_4 
REMARK    3  A    between atoms: C_4  and  C_5 
REMARK    4  A    between atoms: C_5  and  C_6 
REMARK    5  A    between atoms: C_6  and  C_7 
REMARK    6  A    between atoms: C_14  and  C_16 
REMARK    7  A    between atoms: C_15  and  O_17 
REMARK    8  A    between atoms: C_18  and  C_19 
REMARK    9  A    between atoms: C_19  and  O_20 
REMARK   10  A    between atoms: C_19  and  C_21 
REMARK   11  A    between atoms: C_21  and  C_22 
REMARK   12  A    between atoms: C_22  and  C_23 
REMARK   13  A    between atoms: C_23  and  C_24 
ROOT
HETATM    1  C   UNK N   1      80.802  23.308  39.008  0.00  0.00     0.005 C 
HETATM    2  C   UNK N   1      80.323  22.448  39.916  0.00  0.00     0.043 C 
HETATM    3  O   UNK N   1      80.075  21.120  39.611  0.00  0.00    -0.350 OA
HETATM    4  C   UNK N   1      80.061  22.783  41.349  0.00  0.00     0.072 C 
HETATM    5  C   UNK N   1      79.638  20.494  40.827  0.00  0.00     0.136 C 
HETATM    6  C   UNK N   1      80.051  21.410  41.975  0.00  0.00     0.031 C 
HETATM    7  C   UNK N   1      80.381  19.172  41.027  0.00  0.00     0.065 C 
HETATM    8  C   UNK N   1      81.426  20.869  42.389  0.00  0.00     0.043 C 
HETATM    9  C   UNK N   1      81.197  19.354  42.307  0.00  0.00     0.128 C 
ENDROOT
BRANCH   8  10
HETATM   10  C   UNK N   1      81.843  21.325  43.764  0.00  0.00    -0.021 C 
HETATM   11  C   UNK N   1      81.512  20.679  44.895  0.00  0.00     0.001 C 
BRANCH  11  12
HETATM   12  C   UNK N   1      81.909  21.128  46.271  0.00  0.00     0.140 C 
BRANCH  12  13
HETATM   13  O   UNK N   1      82.672  20.080  46.857  0.00  0.00    -0.392 OA
HETATM   14  H   UNK N   1      83.069  20.424  47.675  0.00  0.00     0.210 HD
ENDBRANCH  12  13
BRANCH  12  15
HETATM   15  C   UNK N   1      82.730  22.423  46.224  0.00  0.00     0.036 C 
BRANCH  15  16
HETATM   16  C   UNK N   1      81.874  23.656  46.535  0.00  0.00     0.003 C 
BRANCH  16  17
HETATM   17  C   UNK N   1      81.946  24.681  45.401  0.00  0.00    -0.000 C 
BRANCH  17  18
HETATM   18  C   UNK N   1      80.642  24.723  44.605  0.00  0.00    -0.005 C 
HETATM   19  C   UNK N   1      79.535  23.951  45.308  0.00  0.00     0.005 C 
ENDBRANCH  17  18
ENDBRANCH  16  17
ENDBRANCH  15  16
ENDBRANCH  12  15
ENDBRANCH  11  12
ENDBRANCH   8  10
BRANCH   9  20
HETATM   20  O   UNK N   1      82.412  18.629  42.230  0.00  0.00    -0.395 OA
HETATM   21  H   UNK N   1      83.137  19.267  42.362  0.00  0.00     0.210 HD
ENDBRANCH   9  20
BRANCH   1  22
HETATM   22  C   UNK N   1      81.104  22.971  37.576  0.00  0.00     0.030 C 
BRANCH  22  23
HETATM   23  C   UNK N   1      81.810  24.131  36.873  0.00  0.00     0.014 C 
BRANCH  23  24
HETATM   24  C   UNK N   1      82.752  24.861  37.828  0.00  0.00     0.110 C 
BRANCH  24  25
HETATM   25  C   UNK N   1      84.151  24.935  37.277  0.00  0.00     0.139 C 
HETATM   26  O   UNK N   1      85.081  24.180  37.499  0.00  0.00    -0.650 OA
BRANCH  25  27
HETATM   27  O   UNK N   1      84.303  25.980  36.439  0.00  0.00    -0.776 OA
HETATM   28  H   UNK N   1      83.682  25.789  35.707  0.00  0.00     0.167 HD
ENDBRANCH  25  27
ENDBRANCH  24  25
ENDBRANCH  23  24
ENDBRANCH  22  23
ENDBRANCH   1  22
TORSDOF 13
ENDMDL
