MODEL 1
REMARK VINA RESULT:      -7.4      0.000      0.000
REMARK  9 active torsions:
REMARK  status: ('A' for Active; 'I' for Inactive)
REMARK    1  A    between atoms: C_2  and  O_3 
REMARK    2  A    between atoms: O_3  and  C_5 
REMARK    3  A    between atoms: C_5  and  C_6 
REMARK    4  A    between atoms: C_6  and  C_7 
REMARK    5  A    between atoms: C_6  and  C_8 
REMARK    6  A    between atoms: C_7  and  O_9 
REMARK    7  A    between atoms: C_8  and  C_10 
REMARK    8  A    between atoms: O_9  and  C_11 
REMARK    9  A    between atoms: C_10  and  N_12 
REMARK       I    between atoms: C_22  and  N_26 
ROOT
HETATM    1  N   UNK N   1      78.815  28.172  36.956  0.00  0.00    -0.327 N 
HETATM    2  C   UNK N   1      77.835  28.925  36.373  0.00  0.00     0.152 A 
HETATM    3  C   UNK N   1      78.390  27.844  38.215  0.00  0.00     0.185 A 
HETATM    4  N   UNK N   1      77.832  29.468  35.145  0.00  0.00    -0.174 N 
ATOM      5  HN  UNK N   1      78.601  29.379  34.480  1.00  0.00     0.186 HD
HETATM    6  C   UNK N   1      76.835  29.002  37.326  0.00  0.00     0.094 A 
HETATM    7  N   UNK N   1      77.189  28.325  38.467  0.00  0.00    -0.348 N 
ATOM      8  HN  UNK N   1      76.643  28.218  39.322  1.00  0.00     0.167 HD
HETATM    9  C   UNK N   1      76.698  30.143  34.895  0.00  0.00     0.677 A 
HETATM   10  C   UNK N   1      75.708  29.724  36.961  0.00  0.00     0.139 A 
HETATM   11  N   UNK N   1      75.652  30.294  35.729  0.00  0.00    -0.200 N 
ATOM     12  HN  UNK N   1      74.832  30.828  35.441  1.00  0.00     0.183 HD
HETATM   13  N   UNK N   1      76.588  30.737  33.672  0.00  0.00    -0.234 N 
HETATM   14  H   UNK N   1      77.352  30.648  33.026  0.00  0.00     0.174 HD
HETATM   15  H   UNK N   1      75.744  31.246  33.476  0.00  0.00     0.174 HD
ENDROOT
BRANCH   1  16
HETATM   16  C   UNK N   1      80.088  27.827  36.359  0.00  0.00     0.132 C 
BRANCH  16  17
HETATM   17  C   UNK N   1      80.559  26.405  36.694  0.00  0.00     0.029 C 
BRANCH  17  18
HETATM   18  C   UNK N   1      81.494  26.324  37.919  0.00  0.00     0.036 C 
BRANCH  18  19
HETATM   19  C   UNK N   1      82.366  27.586  38.032  0.00  0.00     0.185 C 
BRANCH  19  20
HETATM   20  O   UNK N   1      83.329  27.438  39.089  0.00  0.00    -0.321 OA
BRANCH  20  21
HETATM   21  C   UNK N   1      84.088  28.540  39.341  0.00  0.00     0.254 C 
HETATM   22  O   UNK N   1      84.197  29.505  38.597  0.00  0.00    -0.266 OA
HETATM   23  C   UNK N   1      84.764  28.408  40.671  0.00  0.00     0.126 C 
ENDBRANCH  20  21
ENDBRANCH  19  20
ENDBRANCH  18  19
BRANCH  18  24
HETATM   24  C   UNK N   1      82.383  25.067  37.843  0.00  0.00     0.185 C 
BRANCH  24  25
HETATM   25  O   UNK N   1      83.024  25.001  36.562  0.00  0.00    -0.321 OA
BRANCH  25  26
HETATM   26  C   UNK N   1      84.319  25.422  36.566  0.00  0.00     0.254 C 
HETATM   27  O   UNK N   1      84.796  26.261  35.816  0.00  0.00    -0.266 OA
HETATM   28  C   UNK N   1      85.089  24.701  37.630  0.00  0.00     0.126 C 
ENDBRANCH  25  26
ENDBRANCH  24  25
ENDBRANCH  18  24
ENDBRANCH  17  18
ENDBRANCH  16  17
ENDBRANCH   1  16
TORSDOF 9
ENDMDL
MODEL 2
REMARK VINA RESULT:      -7.4     16.709     19.056
REMARK  9 active torsions:
REMARK  status: ('A' for Active; 'I' for Inactive)
REMARK    1  A    between atoms: C_2  and  O_3 
REMARK    2  A    between atoms: O_3  and  C_5 
REMARK    3  A    between atoms: C_5  and  C_6 
REMARK    4  A    between atoms: C_6  and  C_7 
REMARK    5  A    between atoms: C_6  and  C_8 
REMARK    6  A    between atoms: C_7  and  O_9 
REMARK    7  A    between atoms: C_8  and  C_10 
REMARK    8  A    between atoms: O_9  and  C_11 
REMARK    9  A    between atoms: C_10  and  N_12 
REMARK       I    between atoms: C_22  and  N_26 
ROOT
HETATM    1  N   UNK N   1      93.113  14.377  41.820  0.00  0.00    -0.327 N 
HETATM    2  C   UNK N   1      92.121  15.079  42.445  0.00  0.00     0.152 A 
HETATM    3  C   UNK N   1      94.296  14.709  42.423  0.00  0.00     0.185 A 
HETATM    4  N   UNK N   1      90.806  15.067  42.175  0.00  0.00    -0.174 N 
ATOM      5  HN  UNK N   1      90.381  14.509  41.433  1.00  0.00     0.186 HD
HETATM    6  C   UNK N   1      92.768  15.805  43.429  0.00  0.00     0.094 A 
HETATM    7  N   UNK N   1      94.120  15.567  43.408  0.00  0.00    -0.348 N 
ATOM      8  HN  UNK N   1      94.832  15.966  44.020  1.00  0.00     0.167 HD
HETATM    9  C   UNK N   1      90.115  15.876  42.995  0.00  0.00     0.677 A 
HETATM   10  C   UNK N   1      91.957  16.607  44.218  0.00  0.00     0.139 A 
HETATM   11  N   UNK N   1      90.618  16.633  43.988  0.00  0.00    -0.200 N 
ATOM     12  HN  UNK N   1      90.004  17.215  44.558  1.00  0.00     0.183 HD
HETATM   13  N   UNK N   1      88.765  15.940  42.809  0.00  0.00    -0.234 N 
HETATM   14  H   UNK N   1      88.357  15.391  42.074  0.00  0.00     0.174 HD
HETATM   15  H   UNK N   1      88.241  16.544  43.416  0.00  0.00     0.174 HD
ENDROOT
BRANCH   1  16
HETATM   16  C   UNK N   1      92.940  13.480  40.696  0.00  0.00     0.132 C 
BRANCH  16  17
HETATM   17  C   UNK N   1      93.734  13.896  39.450  0.00  0.00     0.029 C 
BRANCH  17  18
HETATM   18  C   UNK N   1      92.882  14.004  38.168  0.00  0.00     0.036 C 
BRANCH  18  19
HETATM   19  C   UNK N   1      91.466  14.513  38.488  0.00  0.00     0.185 C 
BRANCH  19  20
HETATM   20  O   UNK N   1      90.489  13.500  38.192  0.00  0.00    -0.321 OA
BRANCH  20  21
HETATM   21  C   UNK N   1      89.503  13.357  39.120  0.00  0.00     0.254 C 
HETATM   22  O   UNK N   1      89.254  14.155  40.013  0.00  0.00    -0.266 OA
HETATM   23  C   UNK N   1      88.753  12.082  38.883  0.00  0.00     0.126 C 
ENDBRANCH  20  21
ENDBRANCH  19  20
ENDBRANCH  18  19
BRANCH  18  24
HETATM   24  C   UNK N   1      92.809  12.645  37.446  0.00  0.00     0.185 C 
BRANCH  24  25
HETATM   25  O   UNK N   1      94.024  11.914  37.660  0.00  0.00    -0.321 OA
BRANCH  25  26
HETATM   26  C   UNK N   1      93.855  10.566  37.746  0.00  0.00     0.254 C 
HETATM   27  O   UNK N   1      94.398   9.735  37.033  0.00  0.00    -0.266 OA
HETATM   28  C   UNK N   1      92.896  10.239  38.850  0.00  0.00     0.126 C 
ENDBRANCH  25  26
ENDBRANCH  24  25
ENDBRANCH  18  24
ENDBRANCH  17  18
ENDBRANCH  16  17
ENDBRANCH   1  16
TORSDOF 9
ENDMDL
MODEL 3
REMARK VINA RESULT:      -7.2      2.542      3.921
REMARK  9 active torsions:
REMARK  status: ('A' for Active; 'I' for Inactive)
REMARK    1  A    between atoms: C_2  and  O_3 
REMARK    2  A    between atoms: O_3  and  C_5 
REMARK    3  A    between atoms: C_5  and  C_6 
REMARK    4  A    between atoms: C_6  and  C_7 
REMARK    5  A    between atoms: C_6  and  C_8 
REMARK    6  A    between atoms: C_7  and  O_9 
REMARK    7  A    between atoms: C_8  and  C_10 
REMARK    8  A    between atoms: O_9  and  C_11 
REMARK    9  A    between atoms: C_10  and  N_12 
REMARK       I    between atoms: C_22  and  N_26 
ROOT
HETATM    1  N   UNK N   1      79.970  27.664  36.790  0.00  0.00    -0.327 N 
HETATM    2  C   UNK N   1      79.385  27.477  35.570  0.00  0.00     0.152 A 
HETATM    3  C   UNK N   1      79.937  29.005  37.064  0.00  0.00     0.185 A 
HETATM    4  N   UNK N   1      79.209  26.324  34.906  0.00  0.00    -0.174 N 
ATOM      5  HN  UNK N   1      79.513  25.414  35.254  1.00  0.00     0.186 HD
HETATM    6  C   UNK N   1      79.002  28.744  35.165  0.00  0.00     0.094 A 
HETATM    7  N   UNK N   1      79.348  29.686  36.102  0.00  0.00    -0.348 N 
ATOM      8  HN  UNK N   1      79.185  30.693  36.063  1.00  0.00     0.167 HD
HETATM    9  C   UNK N   1      78.587  26.508  33.730  0.00  0.00     0.677 A 
HETATM   10  C   UNK N   1      78.367  28.818  33.934  0.00  0.00     0.139 A 
HETATM   11  N   UNK N   1      78.163  27.680  33.220  0.00  0.00    -0.200 N 
ATOM     12  HN  UNK N   1      77.697  27.712  32.313  1.00  0.00     0.183 HD
HETATM   13  N   UNK N   1      78.356  25.399  32.970  0.00  0.00    -0.234 N 
HETATM   14  H   UNK N   1      78.663  24.508  33.319  0.00  0.00     0.174 HD
HETATM   15  H   UNK N   1      77.893  25.527  32.089  0.00  0.00     0.174 HD
ENDROOT
BRANCH   1  16
HETATM   16  C   UNK N   1      80.557  26.629  37.617  0.00  0.00     0.132 C 
BRANCH  16  17
HETATM   17  C   UNK N   1      82.092  26.638  37.614  0.00  0.00     0.029 C 
BRANCH  17  18
HETATM   18  C   UNK N   1      82.730  25.266  37.917  0.00  0.00     0.036 C 
BRANCH  18  19
HETATM   19  C   UNK N   1      83.777  24.897  36.851  0.00  0.00     0.185 C 
BRANCH  19  20
HETATM   20  O   UNK N   1      85.090  25.298  37.278  0.00  0.00    -0.321 OA
BRANCH  20  21
HETATM   21  C   UNK N   1      85.675  24.480  38.197  0.00  0.00     0.254 C 
HETATM   22  O   UNK N   1      85.799  23.268  38.083  0.00  0.00    -0.266 OA
HETATM   23  C   UNK N   1      86.159  25.280  39.366  0.00  0.00     0.126 C 
ENDBRANCH  20  21
ENDBRANCH  19  20
ENDBRANCH  18  19
BRANCH  18  24
HETATM   24  C   UNK N   1      81.649  24.170  38.003  0.00  0.00     0.185 C 
BRANCH  24  25
HETATM   25  O   UNK N   1      82.269  22.887  38.161  0.00  0.00    -0.321 OA
BRANCH  25  26
HETATM   26  C   UNK N   1      81.421  21.908  38.583  0.00  0.00     0.254 C 
HETATM   27  O   UNK N   1      81.553  21.244  39.601  0.00  0.00    -0.266 OA
HETATM   28  C   UNK N   1      80.291  21.755  37.612  0.00  0.00     0.126 C 
ENDBRANCH  25  26
ENDBRANCH  24  25
ENDBRANCH  18  24
ENDBRANCH  17  18
ENDBRANCH  16  17
ENDBRANCH   1  16
TORSDOF 9
ENDMDL
MODEL 4
REMARK VINA RESULT:      -7.2      4.312      7.427
REMARK  9 active torsions:
REMARK  status: ('A' for Active; 'I' for Inactive)
REMARK    1  A    between atoms: C_2  and  O_3 
REMARK    2  A    between atoms: O_3  and  C_5 
REMARK    3  A    between atoms: C_5  and  C_6 
REMARK    4  A    between atoms: C_6  and  C_7 
REMARK    5  A    between atoms: C_6  and  C_8 
REMARK    6  A    between atoms: C_7  and  O_9 
REMARK    7  A    between atoms: C_8  and  C_10 
REMARK    8  A    between atoms: O_9  and  C_11 
REMARK    9  A    between atoms: C_10  and  N_12 
REMARK       I    between atoms: C_22  and  N_26 
ROOT
HETATM    1  N   UNK N   1      83.254  26.207  37.457  0.00  0.00    -0.327 N 
HETATM    2  C   UNK N   1      84.318  25.522  37.975  0.00  0.00     0.152 A 
HETATM    3  C   UNK N   1      83.186  27.413  38.101  0.00  0.00     0.185 A 
HETATM    4  N   UNK N   1      84.750  24.295  37.643  0.00  0.00    -0.174 N 
ATOM      5  HN  UNK N   1      84.308  23.706  36.938  1.00  0.00     0.186 HD
HETATM    6  C   UNK N   1      84.863  26.377  38.917  0.00  0.00     0.094 A 
HETATM    7  N   UNK N   1      84.153  27.551  38.986  0.00  0.00    -0.348 N 
ATOM      8  HN  UNK N   1      84.334  28.353  39.590  1.00  0.00     0.167 HD
HETATM    9  C   UNK N   1      85.834  23.934  38.351  0.00  0.00     0.677 A 
HETATM   10  C   UNK N   1      85.980  25.902  39.587  0.00  0.00     0.139 A 
HETATM   11  N   UNK N   1      86.460  24.666  39.291  0.00  0.00    -0.200 N 
ATOM     12  HN  UNK N   1      87.282  24.298  39.772  1.00  0.00     0.183 HD
HETATM   13  N   UNK N   1      86.358  22.701  38.093  0.00  0.00    -0.234 N 
HETATM   14  H   UNK N   1      85.912  22.127  37.400  0.00  0.00     0.174 HD
HETATM   15  H   UNK N   1      87.167  22.421  38.619  0.00  0.00     0.174 HD
ENDROOT
BRANCH   1  16
HETATM   16  C   UNK N   1      82.343  25.718  36.443  0.00  0.00     0.132 C 
BRANCH  16  17
HETATM   17  C   UNK N   1      81.014  26.483  36.391  0.00  0.00     0.029 C 
BRANCH  17  18
HETATM   18  C   UNK N   1      79.799  25.609  36.013  0.00  0.00     0.036 C 
BRANCH  18  19
HETATM   19  C   UNK N   1      78.696  26.454  35.352  0.00  0.00     0.185 C 
BRANCH  19  20
HETATM   20  O   UNK N   1      79.276  27.499  34.552  0.00  0.00    -0.321 OA
BRANCH  20  21
HETATM   21  C   UNK N   1      78.719  28.731  34.715  0.00  0.00     0.254 C 
HETATM   22  O   UNK N   1      79.224  29.656  35.335  0.00  0.00    -0.266 OA
HETATM   23  C   UNK N   1      77.397  28.795  34.015  0.00  0.00     0.126 C 
ENDBRANCH  20  21
ENDBRANCH  19  20
ENDBRANCH  18  19
BRANCH  18  24
HETATM   24  C   UNK N   1      79.244  24.884  37.254  0.00  0.00     0.185 C 
BRANCH  24  25
HETATM   25  O   UNK N   1      79.934  23.641  37.441  0.00  0.00    -0.321 OA
BRANCH  25  26
HETATM   26  C   UNK N   1      80.610  23.552  38.620  0.00  0.00     0.254 C 
HETATM   27  O   UNK N   1      80.691  24.435  39.461  0.00  0.00    -0.266 OA
HETATM   28  C   UNK N   1      81.250  22.202  38.742  0.00  0.00     0.126 C 
ENDBRANCH  25  26
ENDBRANCH  24  25
ENDBRANCH  18  24
ENDBRANCH  17  18
ENDBRANCH  16  17
ENDBRANCH   1  16
TORSDOF 9
ENDMDL
MODEL 5
REMARK VINA RESULT:      -7.2      2.018      2.546
REMARK  9 active torsions:
REMARK  status: ('A' for Active; 'I' for Inactive)
REMARK    1  A    between atoms: C_2  and  O_3 
REMARK    2  A    between atoms: O_3  and  C_5 
REMARK    3  A    between atoms: C_5  and  C_6 
REMARK    4  A    between atoms: C_6  and  C_7 
REMARK    5  A    between atoms: C_6  and  C_8 
REMARK    6  A    between atoms: C_7  and  O_9 
REMARK    7  A    between atoms: C_8  and  C_10 
REMARK    8  A    between atoms: O_9  and  C_11 
REMARK    9  A    between atoms: C_10  and  N_12 
REMARK       I    between atoms: C_22  and  N_26 
ROOT
HETATM    1  N   UNK N   1      78.104  28.505  35.610  0.00  0.00    -0.327 N 
HETATM    2  C   UNK N   1      77.519  29.106  34.532  0.00  0.00     0.152 A 
HETATM    3  C   UNK N   1      77.227  27.569  36.088  0.00  0.00     0.185 A 
HETATM    4  N   UNK N   1      78.017  30.087  33.762  0.00  0.00    -0.174 N 
ATOM      5  HN  UNK N   1      78.931  30.517  33.906  1.00  0.00     0.186 HD
HETATM    6  C   UNK N   1      76.293  28.476  34.399  0.00  0.00     0.094 A 
HETATM    7  N   UNK N   1      76.123  27.521  35.370  0.00  0.00    -0.348 N 
ATOM      8  HN  UNK N   1      75.318  26.908  35.506  1.00  0.00     0.167 HD
HETATM    9  C   UNK N   1      77.170  30.435  32.779  0.00  0.00     0.677 A 
HETATM   10  C   UNK N   1      75.500  28.915  33.349  0.00  0.00     0.139 A 
HETATM   11  N   UNK N   1      75.956  29.906  32.538  0.00  0.00    -0.200 N 
ATOM     12  HN  UNK N   1      75.389  30.242  31.759  1.00  0.00     0.183 HD
HETATM   13  N   UNK N   1      77.577  31.426  31.933  0.00  0.00    -0.234 N 
HETATM   14  H   UNK N   1      78.477  31.846  32.087  0.00  0.00     0.174 HD
HETATM   15  H   UNK N   1      76.950  31.695  31.196  0.00  0.00     0.174 HD
ENDROOT
BRANCH   1  16
HETATM   16  C   UNK N   1      79.400  28.836  36.166  0.00  0.00     0.132 C 
BRANCH  16  17
HETATM   17  C   UNK N   1      80.384  27.658  36.175  0.00  0.00     0.029 C 
BRANCH  17  18
HETATM   18  C   UNK N   1      81.044  27.400  37.546  0.00  0.00     0.036 C 
BRANCH  18  19
HETATM   19  C   UNK N   1      82.577  27.360  37.421  0.00  0.00     0.185 C 
BRANCH  19  20
HETATM   20  O   UNK N   1      83.154  28.572  37.935  0.00  0.00    -0.321 OA
BRANCH  20  21
HETATM   21  C   UNK N   1      83.962  28.414  39.020  0.00  0.00     0.254 C 
HETATM   22  O   UNK N   1      84.127  27.366  39.629  0.00  0.00    -0.266 OA
HETATM   23  C   UNK N   1      84.632  29.710  39.357  0.00  0.00     0.126 C 
ENDBRANCH  20  21
ENDBRANCH  19  20
ENDBRANCH  18  19
BRANCH  18  24
HETATM   24  C   UNK N   1      80.525  26.086  38.161  0.00  0.00     0.185 C 
BRANCH  24  25
HETATM   25  O   UNK N   1      81.629  25.295  38.622  0.00  0.00    -0.321 OA
BRANCH  25  26
HETATM   26  C   UNK N   1      81.582  23.991  38.228  0.00  0.00     0.254 C 
HETATM   27  O   UNK N   1      82.194  23.512  37.286  0.00  0.00    -0.266 OA
HETATM   28  C   UNK N   1      80.662  23.219  39.124  0.00  0.00     0.126 C 
ENDBRANCH  25  26
ENDBRANCH  24  25
ENDBRANCH  18  24
ENDBRANCH  17  18
ENDBRANCH  16  17
ENDBRANCH   1  16
TORSDOF 9
ENDMDL
MODEL 6
REMARK VINA RESULT:      -7.1     16.791     18.721
REMARK  9 active torsions:
REMARK  status: ('A' for Active; 'I' for Inactive)
REMARK    1  A    between atoms: C_2  and  O_3 
REMARK    2  A    between atoms: O_3  and  C_5 
REMARK    3  A    between atoms: C_5  and  C_6 
REMARK    4  A    between atoms: C_6  and  C_7 
REMARK    5  A    between atoms: C_6  and  C_8 
REMARK    6  A    between atoms: C_7  and  O_9 
REMARK    7  A    between atoms: C_8  and  C_10 
REMARK    8  A    between atoms: O_9  and  C_11 
REMARK    9  A    between atoms: C_10  and  N_12 
REMARK       I    between atoms: C_22  and  N_26 
ROOT
HETATM    1  N   UNK N   1      90.068  14.558  41.999  0.00  0.00    -0.327 N 
HETATM    2  C   UNK N   1      91.229  15.067  42.509  0.00  0.00     0.152 A 
HETATM    3  C   UNK N   1      89.041  15.345  42.445  0.00  0.00     0.185 A 
HETATM    4  N   UNK N   1      92.478  14.606  42.337  0.00  0.00    -0.174 N 
ATOM      5  HN  UNK N   1      92.711  13.782  41.782  1.00  0.00     0.186 HD
HETATM    6  C   UNK N   1      90.837  16.172  43.243  0.00  0.00     0.094 A 
HETATM    7  N   UNK N   1      89.475  16.338  43.195  0.00  0.00    -0.348 N 
ATOM      8  HN  UNK N   1      88.920  17.069  43.642  1.00  0.00     0.167 HD
HETATM    9  C   UNK N   1      93.386  15.358  42.981  0.00  0.00     0.677 A 
HETATM   10  C   UNK N   1      91.858  16.876  43.866  0.00  0.00     0.139 A 
HETATM   11  N   UNK N   1      93.141  16.453  43.724  0.00  0.00    -0.200 N 
ATOM     12  HN  UNK N   1      93.907  16.957  44.173  1.00  0.00     0.183 HD
HETATM   13  N   UNK N   1      94.693  14.979  42.872  0.00  0.00    -0.234 N 
HETATM   14  H   UNK N   1      94.910  14.164  42.328  0.00  0.00     0.174 HD
HETATM   15  H   UNK N   1      95.379  15.534  43.352  0.00  0.00     0.174 HD
ENDROOT
BRANCH   1  16
HETATM   16  C   UNK N   1      89.951  13.375  41.172  0.00  0.00     0.132 C 
BRANCH  16  17
HETATM   17  C   UNK N   1      89.925  13.676  39.668  0.00  0.00     0.029 C 
BRANCH  17  18
HETATM   18  C   UNK N   1      91.146  13.134  38.895  0.00  0.00     0.036 C 
BRANCH  18  19
HETATM   19  C   UNK N   1      91.989  14.286  38.320  0.00  0.00     0.185 C 
BRANCH  19  20
HETATM   20  O   UNK N   1      93.281  13.805  37.911  0.00  0.00    -0.321 OA
BRANCH  20  21
HETATM   21  C   UNK N   1      94.072  13.340  38.917  0.00  0.00     0.254 C 
HETATM   22  O   UNK N   1      94.327  13.944  39.949  0.00  0.00    -0.266 OA
HETATM   23  C   UNK N   1      94.577  11.970  38.584  0.00  0.00     0.126 C 
ENDBRANCH  20  21
ENDBRANCH  19  20
ENDBRANCH  18  19
BRANCH  18  24
HETATM   24  C   UNK N   1      90.699  12.186  37.766  0.00  0.00     0.185 C 
BRANCH  24  25
HETATM   25  O   UNK N   1      89.309  12.391  37.479  0.00  0.00    -0.321 OA
BRANCH  25  26
HETATM   26  C   UNK N   1      88.714  11.349  36.835  0.00  0.00     0.254 C 
HETATM   27  O   UNK N   1      88.460  11.304  35.640  0.00  0.00    -0.266 OA
HETATM   28  C   UNK N   1      88.408  10.253  37.809  0.00  0.00     0.126 C 
ENDBRANCH  25  26
ENDBRANCH  24  25
ENDBRANCH  18  24
ENDBRANCH  17  18
ENDBRANCH  16  17
ENDBRANCH   1  16
TORSDOF 9
ENDMDL
MODEL 7
REMARK VINA RESULT:      -7.0     17.000     18.296
REMARK  9 active torsions:
REMARK  status: ('A' for Active; 'I' for Inactive)
REMARK    1  A    between atoms: C_2  and  O_3 
REMARK    2  A    between atoms: O_3  and  C_5 
REMARK    3  A    between atoms: C_5  and  C_6 
REMARK    4  A    between atoms: C_6  and  C_7 
REMARK    5  A    between atoms: C_6  and  C_8 
REMARK    6  A    between atoms: C_7  and  O_9 
REMARK    7  A    between atoms: C_8  and  C_10 
REMARK    8  A    between atoms: O_9  and  C_11 
REMARK    9  A    between atoms: C_10  and  N_12 
REMARK       I    between atoms: C_22  and  N_26 
ROOT
HETATM    1  N   UNK N   1      91.753  14.098  38.836  0.00  0.00    -0.327 N 
HETATM    2  C   UNK N   1      91.156  13.092  38.129  0.00  0.00     0.152 A 
HETATM    3  C   UNK N   1      93.107  13.942  38.712  0.00  0.00     0.185 A 
HETATM    4  N   UNK N   1      89.843  12.853  37.982  0.00  0.00    -0.174 N 
ATOM      5  HN  UNK N   1      89.109  13.420  38.407  1.00  0.00     0.186 HD
HETATM    6  C   UNK N   1      92.205  12.371  37.586  0.00  0.00     0.094 A 
HETATM    7  N   UNK N   1      93.414  12.909  37.953  0.00  0.00    -0.348 N 
ATOM      8  HN  UNK N   1      94.345  12.581  37.696  1.00  0.00     0.167 HD
HETATM    9  C   UNK N   1      89.609  11.779  37.210  0.00  0.00     0.677 A 
HETATM   10  C   UNK N   1      91.848  11.282  36.805  0.00  0.00     0.139 A 
HETATM   11  N   UNK N   1      90.533  10.994  36.623  0.00  0.00    -0.200 N 
ATOM     12  HN  UNK N   1      90.249  10.199  36.051  1.00  0.00     0.183 HD
HETATM   13  N   UNK N   1      88.305  11.444  36.993  0.00  0.00    -0.234 N 
HETATM   14  H   UNK N   1      87.590  12.006  37.420  0.00  0.00     0.174 HD
HETATM   15  H   UNK N   1      88.120  10.641  36.418  0.00  0.00     0.174 HD
ENDROOT
BRANCH   1  16
HETATM   16  C   UNK N   1      91.069  15.113  39.609  0.00  0.00     0.132 C 
BRANCH  16  17
HETATM   17  C   UNK N   1      90.976  14.787  41.106  0.00  0.00     0.029 C 
BRANCH  17  18
HETATM   18  C   UNK N   1      89.553  14.911  41.690  0.00  0.00     0.036 C 
BRANCH  18  19
HETATM   19  C   UNK N   1      89.563  15.718  43.000  0.00  0.00     0.185 C 
BRANCH  19  20
HETATM   20  O   UNK N   1      90.881  16.228  43.265  0.00  0.00    -0.321 OA
BRANCH  20  21
HETATM   21  C   UNK N   1      91.293  16.123  44.559  0.00  0.00     0.254 C 
HETATM   22  O   UNK N   1      90.707  16.591  45.525  0.00  0.00    -0.266 OA
HETATM   23  C   UNK N   1      92.567  15.340  44.632  0.00  0.00     0.126 C 
ENDBRANCH  20  21
ENDBRANCH  19  20
ENDBRANCH  18  19
BRANCH  18  24
HETATM   24  C   UNK N   1      88.938  13.518  41.927  0.00  0.00     0.185 C 
BRANCH  24  25
HETATM   25  O   UNK N   1      87.549  13.531  41.570  0.00  0.00    -0.321 OA
BRANCH  25  26
HETATM   26  C   UNK N   1      87.295  13.094  40.306  0.00  0.00     0.254 C 
HETATM   27  O   UNK N   1      87.439  13.749  39.285  0.00  0.00    -0.266 OA
HETATM   28  C   UNK N   1      86.806  11.678  40.343  0.00  0.00     0.126 C 
ENDBRANCH  25  26
ENDBRANCH  24  25
ENDBRANCH  18  24
ENDBRANCH  17  18
ENDBRANCH  16  17
ENDBRANCH   1  16
TORSDOF 9
ENDMDL
MODEL 8
REMARK VINA RESULT:      -7.0     17.248     18.967
REMARK  9 active torsions:
REMARK  status: ('A' for Active; 'I' for Inactive)
REMARK    1  A    between atoms: C_2  and  O_3 
REMARK    2  A    between atoms: O_3  and  C_5 
REMARK    3  A    between atoms: C_5  and  C_6 
REMARK    4  A    between atoms: C_6  and  C_7 
REMARK    5  A    between atoms: C_6  and  C_8 
REMARK    6  A    between atoms: C_7  and  O_9 
REMARK    7  A    between atoms: C_8  and  C_10 
REMARK    8  A    between atoms: O_9  and  C_11 
REMARK    9  A    between atoms: C_10  and  N_12 
REMARK       I    between atoms: C_22  and  N_26 
ROOT
HETATM    1  N   UNK N   1      91.868  14.449  39.718  0.00  0.00    -0.327 N 
HETATM    2  C   UNK N   1      92.993  14.398  40.493  0.00  0.00     0.152 A 
HETATM    3  C   UNK N   1      92.195  13.956  38.483  0.00  0.00     0.185 A 
HETATM    4  N   UNK N   1      93.133  14.787  41.770  0.00  0.00    -0.174 N 
ATOM      5  HN  UNK N   1      92.381  15.188  42.331  1.00  0.00     0.186 HD
HETATM    6  C   UNK N   1      93.962  13.847  39.673  0.00  0.00     0.094 A 
HETATM    7  N   UNK N   1      93.455  13.575  38.426  0.00  0.00    -0.348 N 
ATOM      8  HN  UNK N   1      93.946  13.166  37.630  1.00  0.00     0.167 HD
HETATM    9  C   UNK N   1      94.381  14.585  42.224  0.00  0.00     0.677 A 
HETATM   10  C   UNK N   1      95.214  13.684  40.245  0.00  0.00     0.139 A 
HETATM   11  N   UNK N   1      95.412  14.060  41.536  0.00  0.00    -0.200 N 
ATOM     12  HN  UNK N   1      96.326  13.947  41.976  1.00  0.00     0.183 HD
HETATM   13  N   UNK N   1      94.636  14.946  43.515  0.00  0.00    -0.234 N 
HETATM   14  H   UNK N   1      93.890  15.344  44.057  0.00  0.00     0.174 HD
HETATM   15  H   UNK N   1      95.567  14.801  43.863  0.00  0.00     0.174 HD
ENDROOT
BRANCH   1  16
HETATM   16  C   UNK N   1      90.581  14.973  40.124  0.00  0.00     0.132 C 
BRANCH  16  17
HETATM   17  C   UNK N   1      89.708  13.953  40.867  0.00  0.00     0.029 C 
BRANCH  17  18
HETATM   18  C   UNK N   1      89.070  14.494  42.163  0.00  0.00     0.036 C 
BRANCH  18  19
HETATM   19  C   UNK N   1      89.833  15.726  42.681  0.00  0.00     0.185 C 
BRANCH  19  20
HETATM   20  O   UNK N   1      90.787  15.339  43.685  0.00  0.00    -0.321 OA
BRANCH  20  21
HETATM   21  C   UNK N   1      91.020  16.269  44.652  0.00  0.00     0.254 C 
HETATM   22  O   UNK N   1      90.658  16.179  45.817  0.00  0.00    -0.266 OA
HETATM   23  C   UNK N   1      91.796  17.418  44.087  0.00  0.00     0.126 C 
ENDBRANCH  20  21
ENDBRANCH  19  20
ENDBRANCH  18  19
BRANCH  18  24
HETATM   24  C   UNK N   1      89.026  13.400  43.247  0.00  0.00     0.185 C 
BRANCH  24  25
HETATM   25  O   UNK N   1      87.729  13.373  43.859  0.00  0.00    -0.321 OA
BRANCH  25  26
HETATM   26  C   UNK N   1      87.658  14.044  45.042  0.00  0.00     0.254 C 
HETATM   27  O   UNK N   1      86.954  15.017  45.266  0.00  0.00    -0.266 OA
HETATM   28  C   UNK N   1      88.579  13.415  46.043  0.00  0.00     0.126 C 
ENDBRANCH  25  26
ENDBRANCH  24  25
ENDBRANCH  18  24
ENDBRANCH  17  18
ENDBRANCH  16  17
ENDBRANCH   1  16
TORSDOF 9
ENDMDL
MODEL 9
REMARK VINA RESULT:      -7.0     16.417     18.457
REMARK  9 active torsions:
REMARK  status: ('A' for Active; 'I' for Inactive)
REMARK    1  A    between atoms: C_2  and  O_3 
REMARK    2  A    between atoms: O_3  and  C_5 
REMARK    3  A    between atoms: C_5  and  C_6 
REMARK    4  A    between atoms: C_6  and  C_7 
REMARK    5  A    between atoms: C_6  and  C_8 
REMARK    6  A    between atoms: C_7  and  O_9 
REMARK    7  A    between atoms: C_8  and  C_10 
REMARK    8  A    between atoms: O_9  and  C_11 
REMARK    9  A    between atoms: C_10  and  N_12 
REMARK       I    between atoms: C_22  and  N_26 
ROOT
HETATM    1  N   UNK N   1      90.259  14.743  42.387  0.00  0.00    -0.327 N 
HETATM    2  C   UNK N   1      90.513  15.819  43.190  0.00  0.00     0.152 A 
HETATM    3  C   UNK N   1      90.581  13.615  43.092  0.00  0.00     0.185 A 
HETATM    4  N   UNK N   1      90.350  17.120  42.904  0.00  0.00    -0.174 N 
ATOM      5  HN  UNK N   1      90.007  17.469  42.008  1.00  0.00     0.186 HD
HETATM    6  C   UNK N   1      90.971  15.272  44.377  0.00  0.00     0.094 A 
HETATM    7  N   UNK N   1      91.007  13.902  44.306  0.00  0.00    -0.348 N 
ATOM      8  HN  UNK N   1      91.300  13.248  45.033  1.00  0.00     0.167 HD
HETATM    9  C   UNK N   1      90.693  17.910  43.935  0.00  0.00     0.677 A 
HETATM   10  C   UNK N   1      91.295  16.181  45.373  0.00  0.00     0.139 A 
HETATM   11  N   UNK N   1      91.149  17.511  45.137  0.00  0.00    -0.200 N 
ATOM     12  HN  UNK N   1      91.381  18.195  45.857  1.00  0.00     0.183 HD
HETATM   13  N   UNK N   1      90.566  19.257  43.752  0.00  0.00    -0.234 N 
HETATM   14  H   UNK N   1      90.232  19.589  42.865  0.00  0.00     0.174 HD
HETATM   15  H   UNK N   1      90.822  19.855  44.516  0.00  0.00     0.174 HD
ENDROOT
BRANCH   1  16
HETATM   16  C   UNK N   1      89.779  14.799  41.022  0.00  0.00     0.132 C 
BRANCH  16  17
HETATM   17  C   UNK N   1      90.893  14.998  39.986  0.00  0.00     0.029 C 
BRANCH  17  18
HETATM   18  C   UNK N   1      91.591  13.691  39.552  0.00  0.00     0.036 C 
BRANCH  18  19
HETATM   19  C   UNK N   1      92.429  13.909  38.281  0.00  0.00     0.185 C 
BRANCH  19  20
HETATM   20  O   UNK N   1      93.831  13.794  38.578  0.00  0.00    -0.321 OA
BRANCH  20  21
HETATM   21  C   UNK N   1      94.318  12.523  38.593  0.00  0.00     0.254 C 
HETATM   22  O   UNK N   1      94.146  11.692  37.712  0.00  0.00    -0.266 OA
HETATM   23  C   UNK N   1      95.110  12.288  39.843  0.00  0.00     0.126 C 
ENDBRANCH  20  21
ENDBRANCH  19  20
ENDBRANCH  18  19
BRANCH  18  24
HETATM   24  C   UNK N   1      90.556  12.573  39.323  0.00  0.00     0.185 C 
BRANCH  24  25
HETATM   25  O   UNK N   1      89.996  12.690  38.008  0.00  0.00    -0.321 OA
BRANCH  25  26
HETATM   26  C   UNK N   1      90.052  11.544  37.274  0.00  0.00     0.254 C 
HETATM   27  O   UNK N   1      91.007  10.784  37.217  0.00  0.00    -0.266 OA
HETATM   28  C   UNK N   1      88.763  11.345  36.536  0.00  0.00     0.126 C 
ENDBRANCH  25  26
ENDBRANCH  24  25
ENDBRANCH  18  24
ENDBRANCH  17  18
ENDBRANCH  16  17
ENDBRANCH   1  16
TORSDOF 9
ENDMDL
