MODEL 1
REMARK VINA RESULT:      -8.4      0.000      0.000
REMARK  11 active torsions:
REMARK  status: ('A' for Active; 'I' for Inactive)
REMARK    1  A    between atoms: C_2  and  N_3 
REMARK    2  A    between atoms: N_3  and  C_4 
REMARK    3  A    between atoms: C_5  and  O_7 
REMARK    4  A    between atoms: C_9  and  C_11 
REMARK    5  A    between atoms: C_11  and  O_12 
REMARK    6  A    between atoms: C_11  and  C_13 
REMARK    7  A    between atoms: C_13  and  N_14 
REMARK    8  A    between atoms: N_14  and  C_15 
REMARK    9  A    between atoms: C_15  and  C_16 
REMARK   10  A    between atoms: C_16  and  C_18 
REMARK   11  A    between atoms: C_23  and  O_24 
ROOT
HETATM    1  C   UNK N   1      88.628  14.105  44.646  0.00  0.00     0.179 C 
ENDROOT
BRANCH   1   2
HETATM    2  C   UNK N   1      89.836  15.007  44.511  0.00  0.00    -0.026 A 
HETATM    3  C   UNK N   1      89.724  16.296  43.956  0.00  0.00     0.042 A 
HETATM    4  C   UNK N   1      90.850  17.110  43.812  0.00  0.00     0.068 A 
HETATM    5  C   UNK N   1      92.099  16.621  44.218  0.00  0.00     0.092 A 
HETATM    6  C   UNK N   1      92.232  15.349  44.766  0.00  0.00     0.039 A 
HETATM    7  C   UNK N   1      91.100  14.544  44.910  0.00  0.00     0.012 A 
BRANCH   4   8
HETATM    8  N   UNK N   1      90.816  18.407  43.269  0.00  0.00    -0.332 N 
HETATM    9  H   UNK N   1      90.551  18.469  42.291  0.00  0.00     0.168 HD
BRANCH   8  10
HETATM   10  C   UNK N   1      91.117  19.588  43.874  0.00  0.00     0.353 C 
HETATM   11  O   UNK N   1      91.525  20.567  43.260  0.00  0.00    -0.283 OA
ENDBRANCH   8  10
ENDBRANCH   4   8
BRANCH   5  12
HETATM   12  O   UNK N   1      93.197  17.429  44.063  0.00  0.00    -0.358 OA
HETATM   13  H   UNK N   1      93.015  18.285  44.484  0.00  0.00     0.218 HD
ENDBRANCH   5  12
ENDBRANCH   1   2
BRANCH   1  14
HETATM   14  O   UNK N   1      87.459  14.878  44.938  0.00  0.00    -0.389 OA
HETATM   15  H   UNK N   1      87.808  15.715  45.307  0.00  0.00     0.210 HD
ENDBRANCH   1  14
BRANCH   1  16
HETATM   16  C   UNK N   1      88.375  13.282  43.360  0.00  0.00     0.306 C 
BRANCH  16  17
HETATM   17  N   UNK N   1      88.121  14.197  42.227  0.00  0.00     0.090 N 
HETATM   18  H   UNK N   1      87.121  14.205  42.016  0.00  0.00     0.316 HD
BRANCH  17  19
HETATM   19  C   UNK N   1      88.874  13.822  41.011  0.00  0.00     0.220 C 
HETATM   20  C   UNK N   1      87.928  13.572  39.830  0.00  0.00     0.043 C 
BRANCH  19  21
HETATM   21  C   UNK N   1      89.868  14.968  40.702  0.00  0.00     0.073 C 
BRANCH  21  22
HETATM   22  C   UNK N   1      91.245  14.495  40.298  0.00  0.00    -0.056 A 
HETATM   23  C   UNK N   1      91.585  14.370  38.946  0.00  0.00     0.010 A 
HETATM   24  C   UNK N   1      92.862  13.940  38.576  0.00  0.00     0.037 A 
HETATM   25  C   UNK N   1      93.818  13.627  39.544  0.00  0.00     0.068 A 
HETATM   26  C   UNK N   1      93.483  13.746  40.892  0.00  0.00     0.037 A 
HETATM   27  C   UNK N   1      92.205  14.177  41.267  0.00  0.00     0.010 A 
BRANCH  25  28
HETATM   28  O   UNK N   1      95.025  13.220  39.045  0.00  0.00    -0.356 OA
HETATM   29  C   UNK N   1      96.132  13.252  39.938  0.00  0.00     0.210 C 
ENDBRANCH  25  28
ENDBRANCH  21  22
ENDBRANCH  19  21
ENDBRANCH  17  19
ENDBRANCH  16  17
ENDBRANCH   1  16
TORSDOF 11
ENDMDL
MODEL 2
REMARK VINA RESULT:      -8.0      2.425      4.608
REMARK  11 active torsions:
REMARK  status: ('A' for Active; 'I' for Inactive)
REMARK    1  A    between atoms: C_2  and  N_3 
REMARK    2  A    between atoms: N_3  and  C_4 
REMARK    3  A    between atoms: C_5  and  O_7 
REMARK    4  A    between atoms: C_9  and  C_11 
REMARK    5  A    between atoms: C_11  and  O_12 
REMARK    6  A    between atoms: C_11  and  C_13 
REMARK    7  A    between atoms: C_13  and  N_14 
REMARK    8  A    between atoms: N_14  and  C_15 
REMARK    9  A    between atoms: C_15  and  C_16 
REMARK   10  A    between atoms: C_16  and  C_18 
REMARK   11  A    between atoms: C_23  and  O_24 
ROOT
HETATM    1  C   UNK N   1      94.090  14.706  42.813  0.00  0.00     0.179 C 
ENDROOT
BRANCH   1   2
HETATM    2  C   UNK N   1      92.631  15.107  42.824  0.00  0.00    -0.026 A 
HETATM    3  C   UNK N   1      92.237  16.411  43.179  0.00  0.00     0.042 A 
HETATM    4  C   UNK N   1      90.886  16.764  43.211  0.00  0.00     0.068 A 
HETATM    5  C   UNK N   1      89.923  15.796  42.893  0.00  0.00     0.092 A 
HETATM    6  C   UNK N   1      90.291  14.501  42.541  0.00  0.00     0.039 A 
HETATM    7  C   UNK N   1      91.644  14.159  42.509  0.00  0.00     0.012 A 
BRANCH   4   8
HETATM    8  N   UNK N   1      90.417  18.044  43.553  0.00  0.00    -0.332 N 
HETATM    9  H   UNK N   1      89.417  18.188  43.455  0.00  0.00     0.168 HD
BRANCH   8  10
HETATM   10  C   UNK N   1      91.129  19.125  43.975  0.00  0.00     0.353 C 
HETATM   11  O   UNK N   1      91.154  20.186  43.363  0.00  0.00    -0.283 OA
ENDBRANCH   8  10
ENDBRANCH   4   8
BRANCH   5  12
HETATM   12  O   UNK N   1      88.600  16.154  42.935  0.00  0.00    -0.358 OA
HETATM   13  H   UNK N   1      88.541  17.123  42.976  0.00  0.00     0.218 HD
ENDBRANCH   5  12
ENDBRANCH   1   2
BRANCH   1  14
HETATM   14  O   UNK N   1      94.755  15.210  43.977  0.00  0.00    -0.389 OA
HETATM   15  H   UNK N   1      94.058  15.698  44.461  0.00  0.00     0.210 HD
ENDBRANCH   1  14
BRANCH   1  16
HETATM   16  C   UNK N   1      94.265  13.168  42.764  0.00  0.00     0.306 C 
BRANCH  16  17
HETATM   17  N   UNK N   1      95.303  12.819  41.771  0.00  0.00     0.090 N 
HETATM   18  H   UNK N   1      96.228  12.947  42.187  0.00  0.00     0.316 HD
BRANCH  17  19
HETATM   19  C   UNK N   1      95.207  13.627  40.537  0.00  0.00     0.220 C 
HETATM   20  C   UNK N   1      96.580  14.172  40.124  0.00  0.00     0.043 C 
BRANCH  19  21
HETATM   21  C   UNK N   1      94.604  12.727  39.431  0.00  0.00     0.073 C 
BRANCH  21  22
HETATM   22  C   UNK N   1      93.113  12.893  39.247  0.00  0.00    -0.056 A 
HETATM   23  C   UNK N   1      92.595  14.057  38.668  0.00  0.00     0.010 A 
HETATM   24  C   UNK N   1      91.216  14.205  38.493  0.00  0.00     0.037 A 
HETATM   25  C   UNK N   1      90.335  13.198  38.892  0.00  0.00     0.068 A 
HETATM   26  C   UNK N   1      90.846  12.038  39.472  0.00  0.00     0.037 A 
HETATM   27  C   UNK N   1      92.226  11.887  39.649  0.00  0.00     0.010 A 
BRANCH  25  28
HETATM   28  O   UNK N   1      89.013  13.470  38.661  0.00  0.00    -0.356 OA
HETATM   29  C   UNK N   1      88.157  13.501  39.796  0.00  0.00     0.210 C 
ENDBRANCH  25  28
ENDBRANCH  21  22
ENDBRANCH  19  21
ENDBRANCH  17  19
ENDBRANCH  16  17
ENDBRANCH   1  16
TORSDOF 11
ENDMDL
MODEL 3
REMARK VINA RESULT:      -7.6      1.258      2.148
REMARK  11 active torsions:
REMARK  status: ('A' for Active; 'I' for Inactive)
REMARK    1  A    between atoms: C_2  and  N_3 
REMARK    2  A    between atoms: N_3  and  C_4 
REMARK    3  A    between atoms: C_5  and  O_7 
REMARK    4  A    between atoms: C_9  and  C_11 
REMARK    5  A    between atoms: C_11  and  O_12 
REMARK    6  A    between atoms: C_11  and  C_13 
REMARK    7  A    between atoms: C_13  and  N_14 
REMARK    8  A    between atoms: N_14  and  C_15 
REMARK    9  A    between atoms: C_15  and  C_16 
REMARK   10  A    between atoms: C_16  and  C_18 
REMARK   11  A    between atoms: C_23  and  O_24 
ROOT
HETATM    1  C   UNK N   1      88.758  13.745  45.062  0.00  0.00     0.179 C 
ENDROOT
BRANCH   1   2
HETATM    2  C   UNK N   1      89.951  14.629  44.770  0.00  0.00    -0.026 A 
HETATM    3  C   UNK N   1      89.790  15.902  44.189  0.00  0.00     0.042 A 
HETATM    4  C   UNK N   1      90.900  16.699  43.901  0.00  0.00     0.068 A 
HETATM    5  C   UNK N   1      92.181  16.210  44.188  0.00  0.00     0.092 A 
HETATM    6  C   UNK N   1      92.363  14.954  44.759  0.00  0.00     0.039 A 
HETATM    7  C   UNK N   1      91.247  14.166  45.048  0.00  0.00     0.012 A 
BRANCH   4   8
HETATM    8  N   UNK N   1      90.818  17.978  43.324  0.00  0.00    -0.332 N 
HETATM    9  H   UNK N   1      90.668  18.001  42.319  0.00  0.00     0.168 HD
BRANCH   8  10
HETATM   10  C   UNK N   1      90.938  19.192  43.928  0.00  0.00     0.353 C 
HETATM   11  O   UNK N   1      91.339  20.191  43.343  0.00  0.00    -0.283 OA
ENDBRANCH   8  10
ENDBRANCH   4   8
BRANCH   5  12
HETATM   12  O   UNK N   1      93.262  17.001  43.892  0.00  0.00    -0.358 OA
HETATM   13  H   UNK N   1      93.952  16.447  43.490  0.00  0.00     0.218 HD
ENDBRANCH   5  12
ENDBRANCH   1   2
BRANCH   1  14
HETATM   14  O   UNK N   1      88.807  13.270  46.412  0.00  0.00    -0.389 OA
HETATM   15  H   UNK N   1      88.004  13.644  46.828  0.00  0.00     0.210 HD
ENDBRANCH   1  14
BRANCH   1  16
HETATM   16  C   UNK N   1      87.419  14.492  44.842  0.00  0.00     0.306 C 
BRANCH  16  17
HETATM   17  N   UNK N   1      86.964  14.294  43.450  0.00  0.00     0.090 N 
HETATM   18  H   UNK N   1      85.959  14.472  43.393  0.00  0.00     0.316 HD
BRANCH  17  19
HETATM   19  C   UNK N   1      87.248  12.934  42.944  0.00  0.00     0.220 C 
HETATM   20  C   UNK N   1      86.010  12.035  43.049  0.00  0.00     0.043 C 
BRANCH  19  21
HETATM   21  C   UNK N   1      87.722  13.068  41.477  0.00  0.00     0.073 C 
BRANCH  21  22
HETATM   22  C   UNK N   1      89.188  13.407  41.333  0.00  0.00    -0.056 A 
HETATM   23  C   UNK N   1      90.171  12.519  41.785  0.00  0.00     0.010 A 
HETATM   24  C   UNK N   1      91.525  12.833  41.643  0.00  0.00     0.037 A 
HETATM   25  C   UNK N   1      91.921  14.034  41.052  0.00  0.00     0.068 A 
HETATM   26  C   UNK N   1      90.946  14.924  40.603  0.00  0.00     0.037 A 
HETATM   27  C   UNK N   1      89.589  14.613  40.743  0.00  0.00     0.010 A 
BRANCH  25  28
HETATM   28  O   UNK N   1      93.275  14.215  40.975  0.00  0.00    -0.356 OA
HETATM   29  C   UNK N   1      93.907  13.822  39.764  0.00  0.00     0.210 C 
ENDBRANCH  25  28
ENDBRANCH  21  22
ENDBRANCH  19  21
ENDBRANCH  17  19
ENDBRANCH  16  17
ENDBRANCH   1  16
TORSDOF 11
ENDMDL
MODEL 4
REMARK VINA RESULT:      -7.3     29.703     32.946
REMARK  11 active torsions:
REMARK  status: ('A' for Active; 'I' for Inactive)
REMARK    1  A    between atoms: C_2  and  N_3 
REMARK    2  A    between atoms: N_3  and  C_4 
REMARK    3  A    between atoms: C_5  and  O_7 
REMARK    4  A    between atoms: C_9  and  C_11 
REMARK    5  A    between atoms: C_11  and  O_12 
REMARK    6  A    between atoms: C_11  and  C_13 
REMARK    7  A    between atoms: C_13  and  N_14 
REMARK    8  A    between atoms: N_14  and  C_15 
REMARK    9  A    between atoms: C_15  and  C_16 
REMARK   10  A    between atoms: C_16  and  C_18 
REMARK   11  A    between atoms: C_23  and  O_24 
ROOT
HETATM    1  C   UNK N   1      72.886   5.273  16.105  0.00  0.00     0.179 C 
ENDROOT
BRANCH   1   2
HETATM    2  C   UNK N   1      74.116   6.154  16.141  0.00  0.00    -0.026 A 
HETATM    3  C   UNK N   1      75.174   5.892  17.032  0.00  0.00     0.042 A 
HETATM    4  C   UNK N   1      76.293   6.726  17.075  0.00  0.00     0.068 A 
HETATM    5  C   UNK N   1      76.346   7.837  16.223  0.00  0.00     0.092 A 
HETATM    6  C   UNK N   1      75.310   8.116  15.335  0.00  0.00     0.039 A 
HETATM    7  C   UNK N   1      74.197   7.274  15.298  0.00  0.00     0.012 A 
BRANCH   4   8
HETATM    8  N   UNK N   1      77.387   6.528  17.936  0.00  0.00    -0.332 N 
HETATM    9  H   UNK N   1      77.281   6.897  18.876  0.00  0.00     0.168 HD
BRANCH   8  10
HETATM   10  C   UNK N   1      78.580   5.930  17.669  0.00  0.00     0.353 C 
HETATM   11  O   UNK N   1      79.560   6.547  17.267  0.00  0.00    -0.283 OA
ENDBRANCH   8  10
ENDBRANCH   4   8
BRANCH   5  12
HETATM   12  O   UNK N   1      77.448   8.652  16.281  0.00  0.00    -0.358 OA
HETATM   13  H   UNK N   1      77.923   8.593  15.435  0.00  0.00     0.218 HD
ENDBRANCH   5  12
ENDBRANCH   1   2
BRANCH   1  14
HETATM   14  O   UNK N   1      72.069   5.603  14.977  0.00  0.00    -0.389 OA
HETATM   15  H   UNK N   1      72.570   6.303  14.511  0.00  0.00     0.210 HD
ENDBRANCH   1  14
BRANCH   1  16
HETATM   16  C   UNK N   1      73.253   3.771  16.035  0.00  0.00     0.306 C 
BRANCH  16  17
HETATM   17  N   UNK N   1      72.635   3.164  14.837  0.00  0.00     0.090 N 
HETATM   18  H   UNK N   1      71.986   2.430  15.125  0.00  0.00     0.316 HD
BRANCH  17  19
HETATM   19  C   UNK N   1      73.633   2.596  13.906  0.00  0.00     0.220 C 
HETATM   20  C   UNK N   1      73.188   1.224  13.386  0.00  0.00     0.043 C 
BRANCH  19  21
HETATM   21  C   UNK N   1      73.819   3.603  12.745  0.00  0.00     0.073 C 
BRANCH  21  22
HETATM   22  C   UNK N   1      75.042   4.480  12.880  0.00  0.00    -0.056 A 
HETATM   23  C   UNK N   1      76.064   4.141  13.774  0.00  0.00     0.010 A 
HETATM   24  C   UNK N   1      77.198   4.950  13.891  0.00  0.00     0.037 A 
HETATM   25  C   UNK N   1      77.330   6.107  13.122  0.00  0.00     0.068 A 
HETATM   26  C   UNK N   1      76.313   6.452  12.232  0.00  0.00     0.037 A 
HETATM   27  C   UNK N   1      75.177   5.644  12.112  0.00  0.00     0.010 A 
BRANCH  25  28
HETATM   28  O   UNK N   1      78.487   6.806  13.334  0.00  0.00    -0.356 OA
HETATM   29  C   UNK N   1      79.614   6.061  13.776  0.00  0.00     0.210 C 
ENDBRANCH  25  28
ENDBRANCH  21  22
ENDBRANCH  19  21
ENDBRANCH  17  19
ENDBRANCH  16  17
ENDBRANCH   1  16
TORSDOF 11
ENDMDL
MODEL 5
REMARK VINA RESULT:      -7.3      2.339      6.317
REMARK  11 active torsions:
REMARK  status: ('A' for Active; 'I' for Inactive)
REMARK    1  A    between atoms: C_2  and  N_3 
REMARK    2  A    between atoms: N_3  and  C_4 
REMARK    3  A    between atoms: C_5  and  O_7 
REMARK    4  A    between atoms: C_9  and  C_11 
REMARK    5  A    between atoms: C_11  and  O_12 
REMARK    6  A    between atoms: C_11  and  C_13 
REMARK    7  A    between atoms: C_13  and  N_14 
REMARK    8  A    between atoms: N_14  and  C_15 
REMARK    9  A    between atoms: C_15  and  C_16 
REMARK   10  A    between atoms: C_16  and  C_18 
REMARK   11  A    between atoms: C_23  and  O_24 
ROOT
HETATM    1  C   UNK N   1      93.825  14.744  43.633  0.00  0.00     0.179 C 
ENDROOT
BRANCH   1   2
HETATM    2  C   UNK N   1      93.905  14.404  42.160  0.00  0.00    -0.026 A 
HETATM    3  C   UNK N   1      92.762  14.002  41.442  0.00  0.00     0.042 A 
HETATM    4  C   UNK N   1      92.852  13.666  40.090  0.00  0.00     0.068 A 
HETATM    5  C   UNK N   1      94.100  13.725  39.456  0.00  0.00     0.092 A 
HETATM    6  C   UNK N   1      95.243  14.117  40.148  0.00  0.00     0.039 A 
HETATM    7  C   UNK N   1      95.142  14.454  41.499  0.00  0.00     0.012 A 
BRANCH   4   8
HETATM    8  N   UNK N   1      91.756  13.258  39.309  0.00  0.00    -0.332 N 
HETATM    9  H   UNK N   1      91.608  12.256  39.246  0.00  0.00     0.168 HD
BRANCH   8  10
HETATM   10  C   UNK N   1      90.883  14.028  38.603  0.00  0.00     0.353 C 
HETATM   11  O   UNK N   1      91.150  15.164  38.226  0.00  0.00    -0.283 OA
ENDBRANCH   8  10
ENDBRANCH   4   8
BRANCH   5  12
HETATM   12  O   UNK N   1      94.175  13.384  38.129  0.00  0.00    -0.358 OA
HETATM   13  H   UNK N   1      93.633  12.592  37.981  0.00  0.00     0.218 HD
ENDBRANCH   5  12
ENDBRANCH   1   2
BRANCH   1  14
HETATM   14  O   UNK N   1      95.139  14.860  44.190  0.00  0.00    -0.389 OA
HETATM   15  H   UNK N   1      95.607  15.466  43.581  0.00  0.00     0.210 HD
ENDBRANCH   1  14
BRANCH   1  16
HETATM   16  C   UNK N   1      93.058  16.066  43.879  0.00  0.00     0.306 C 
BRANCH  16  17
HETATM   17  N   UNK N   1      91.887  15.807  44.742  0.00  0.00     0.090 N 
HETATM   18  H   UNK N   1      91.540  14.862  44.569  0.00  0.00     0.316 HD
BRANCH  17  19
HETATM   19  C   UNK N   1      90.792  16.777  44.523  0.00  0.00     0.220 C 
HETATM   20  C   UNK N   1      91.286  18.218  44.692  0.00  0.00     0.043 C 
BRANCH  19  21
HETATM   21  C   UNK N   1      90.231  16.538  43.100  0.00  0.00     0.073 C 
BRANCH  21  22
HETATM   22  C   UNK N   1      89.262  15.383  43.005  0.00  0.00    -0.056 A 
HETATM   23  C   UNK N   1      88.422  15.070  44.080  0.00  0.00     0.010 A 
HETATM   24  C   UNK N   1      87.522  14.005  43.986  0.00  0.00     0.037 A 
HETATM   25  C   UNK N   1      87.447  13.235  42.824  0.00  0.00     0.068 A 
HETATM   26  C   UNK N   1      88.284  13.540  41.751  0.00  0.00     0.037 A 
HETATM   27  C   UNK N   1      89.186  14.606  41.842  0.00  0.00     0.010 A 
BRANCH  25  28
HETATM   28  O   UNK N   1      86.524  12.226  42.865  0.00  0.00    -0.356 OA
HETATM   29  C   UNK N   1      86.057  11.732  41.617  0.00  0.00     0.210 C 
ENDBRANCH  25  28
ENDBRANCH  21  22
ENDBRANCH  19  21
ENDBRANCH  17  19
ENDBRANCH  16  17
ENDBRANCH   1  16
TORSDOF 11
ENDMDL
MODEL 6
REMARK VINA RESULT:      -7.0      8.265     11.601
REMARK  11 active torsions:
REMARK  status: ('A' for Active; 'I' for Inactive)
REMARK    1  A    between atoms: C_2  and  N_3 
REMARK    2  A    between atoms: N_3  and  C_4 
REMARK    3  A    between atoms: C_5  and  O_7 
REMARK    4  A    between atoms: C_9  and  C_11 
REMARK    5  A    between atoms: C_11  and  O_12 
REMARK    6  A    between atoms: C_11  and  C_13 
REMARK    7  A    between atoms: C_13  and  N_14 
REMARK    8  A    between atoms: N_14  and  C_15 
REMARK    9  A    between atoms: C_15  and  C_16 
REMARK   10  A    between atoms: C_16  and  C_18 
REMARK   11  A    between atoms: C_23  and  O_24 
ROOT
HETATM    1  C   UNK N   1      82.234  17.057  43.306  0.00  0.00     0.179 C 
ENDROOT
BRANCH   1   2
HETATM    2  C   UNK N   1      82.842  17.164  44.687  0.00  0.00    -0.026 A 
HETATM    3  C   UNK N   1      83.717  16.175  45.176  0.00  0.00     0.042 A 
HETATM    4  C   UNK N   1      84.253  16.270  46.462  0.00  0.00     0.068 A 
HETATM    5  C   UNK N   1      83.900  17.362  47.267  0.00  0.00     0.092 A 
HETATM    6  C   UNK N   1      83.035  18.349  46.804  0.00  0.00     0.039 A 
HETATM    7  C   UNK N   1      82.507  18.247  45.515  0.00  0.00     0.012 A 
BRANCH   4   8
HETATM    8  N   UNK N   1      85.132  15.324  47.018  0.00  0.00    -0.332 N 
HETATM    9  H   UNK N   1      85.264  15.382  48.023  0.00  0.00     0.168 HD
BRANCH   8  10
HETATM   10  C   UNK N   1      85.850  14.357  46.384  0.00  0.00     0.353 C 
HETATM   11  O   UNK N   1      87.075  14.360  46.336  0.00  0.00    -0.283 OA
ENDBRANCH   8  10
ENDBRANCH   4   8
BRANCH   5  12
HETATM   12  O   UNK N   1      84.427  17.438  48.531  0.00  0.00    -0.358 OA
HETATM   13  H   UNK N   1      85.083  18.154  48.551  0.00  0.00     0.218 HD
ENDBRANCH   5  12
ENDBRANCH   1   2
BRANCH   1  14
HETATM   14  O   UNK N   1      81.397  15.898  43.217  0.00  0.00    -0.389 OA
HETATM   15  H   UNK N   1      81.071  15.765  44.130  0.00  0.00     0.210 HD
ENDBRANCH   1  14
BRANCH   1  16
HETATM   16  C   UNK N   1      81.394  18.308  42.947  0.00  0.00     0.306 C 
BRANCH  16  17
HETATM   17  N   UNK N   1      82.200  19.223  42.111  0.00  0.00     0.090 N 
HETATM   18  H   UNK N   1      83.129  19.329  42.523  0.00  0.00     0.316 HD
BRANCH  17  19
HETATM   19  C   UNK N   1      81.578  20.556  41.962  0.00  0.00     0.220 C 
HETATM   20  C   UNK N   1      80.692  20.616  40.712  0.00  0.00     0.043 C 
BRANCH  19  21
HETATM   21  C   UNK N   1      80.758  20.838  43.245  0.00  0.00     0.073 C 
BRANCH  21  22
HETATM   22  C   UNK N   1      81.210  22.063  44.006  0.00  0.00    -0.056 A 
HETATM   23  C   UNK N   1      82.374  22.029  44.782  0.00  0.00     0.010 A 
HETATM   24  C   UNK N   1      82.792  23.166  45.479  0.00  0.00     0.037 A 
HETATM   25  C   UNK N   1      82.058  24.352  45.415  0.00  0.00     0.068 A 
HETATM   26  C   UNK N   1      80.896  24.391  44.645  0.00  0.00     0.037 A 
HETATM   27  C   UNK N   1      80.474  23.255  43.946  0.00  0.00     0.010 A 
BRANCH  25  28
HETATM   28  O   UNK N   1      82.579  25.387  46.142  0.00  0.00    -0.356 OA
HETATM   29  C   UNK N   1      82.796  26.611  45.452  0.00  0.00     0.210 C 
ENDBRANCH  25  28
ENDBRANCH  21  22
ENDBRANCH  19  21
ENDBRANCH  17  19
ENDBRANCH  16  17
ENDBRANCH   1  16
TORSDOF 11
ENDMDL
MODEL 7
REMARK VINA RESULT:      -7.0      2.646      5.805
REMARK  11 active torsions:
REMARK  status: ('A' for Active; 'I' for Inactive)
REMARK    1  A    between atoms: C_2  and  N_3 
REMARK    2  A    between atoms: N_3  and  C_4 
REMARK    3  A    between atoms: C_5  and  O_7 
REMARK    4  A    between atoms: C_9  and  C_11 
REMARK    5  A    between atoms: C_11  and  O_12 
REMARK    6  A    between atoms: C_11  and  C_13 
REMARK    7  A    between atoms: C_13  and  N_14 
REMARK    8  A    between atoms: N_14  and  C_15 
REMARK    9  A    between atoms: C_15  and  C_16 
REMARK   10  A    between atoms: C_16  and  C_18 
REMARK   11  A    between atoms: C_23  and  O_24 
ROOT
HETATM    1  C   UNK N   1      93.419  14.792  43.483  0.00  0.00     0.179 C 
ENDROOT
BRANCH   1   2
HETATM    2  C   UNK N   1      93.762  14.187  42.139  0.00  0.00    -0.026 A 
HETATM    3  C   UNK N   1      93.168  12.986  41.707  0.00  0.00     0.042 A 
HETATM    4  C   UNK N   1      93.511  12.422  40.477  0.00  0.00     0.068 A 
HETATM    5  C   UNK N   1      94.466  13.064  39.678  0.00  0.00     0.092 A 
HETATM    6  C   UNK N   1      95.068  14.251  40.086  0.00  0.00     0.039 A 
HETATM    7  C   UNK N   1      94.715  14.809  41.316  0.00  0.00     0.012 A 
BRANCH   4   8
HETATM    8  N   UNK N   1      92.959  11.228  39.980  0.00  0.00    -0.332 N 
HETATM    9  H   UNK N   1      92.084  11.324  39.474  0.00  0.00     0.168 HD
BRANCH   8  10
HETATM   10  C   UNK N   1      93.429   9.957  40.109  0.00  0.00     0.353 C 
HETATM   11  O   UNK N   1      94.411   9.545  39.502  0.00  0.00    -0.283 OA
ENDBRANCH   8  10
ENDBRANCH   4   8
BRANCH   5  12
HETATM   12  O   UNK N   1      94.800  12.495  38.475  0.00  0.00    -0.358 OA
HETATM   13  H   UNK N   1      94.457  11.587  38.455  0.00  0.00     0.218 HD
ENDBRANCH   5  12
ENDBRANCH   1   2
BRANCH   1  14
HETATM   14  O   UNK N   1      94.605  15.249  44.142  0.00  0.00    -0.389 OA
HETATM   15  H   UNK N   1      94.952  15.952  43.556  0.00  0.00     0.210 HD
ENDBRANCH   1  14
BRANCH   1  16
HETATM   16  C   UNK N   1      92.434  15.980  43.346  0.00  0.00     0.306 C 
BRANCH  16  17
HETATM   17  N   UNK N   1      91.155  15.642  44.006  0.00  0.00     0.090 N 
HETATM   18  H   UNK N   1      91.325  14.956  44.743  0.00  0.00     0.316 HD
BRANCH  17  19
HETATM   19  C   UNK N   1      90.150  15.106  43.062  0.00  0.00     0.220 C 
HETATM   20  C   UNK N   1      88.725  15.383  43.556  0.00  0.00     0.043 C 
BRANCH  19  21
HETATM   21  C   UNK N   1      90.405  15.762  41.683  0.00  0.00     0.073 C 
BRANCH  21  22
HETATM   22  C   UNK N   1      90.313  14.802  40.519  0.00  0.00    -0.056 A 
HETATM   23  C   UNK N   1      89.397  13.744  40.541  0.00  0.00     0.010 A 
HETATM   24  C   UNK N   1      89.310  12.863  39.460  0.00  0.00     0.037 A 
HETATM   25  C   UNK N   1      90.133  13.020  38.344  0.00  0.00     0.068 A 
HETATM   26  C   UNK N   1      91.050  14.070  38.318  0.00  0.00     0.037 A 
HETATM   27  C   UNK N   1      91.140  14.954  39.399  0.00  0.00     0.010 A 
BRANCH  25  28
HETATM   28  O   UNK N   1      89.944  12.090  37.358  0.00  0.00    -0.356 OA
HETATM   29  C   UNK N   1      90.173  10.731  37.705  0.00  0.00     0.210 C 
ENDBRANCH  25  28
ENDBRANCH  21  22
ENDBRANCH  19  21
ENDBRANCH  17  19
ENDBRANCH  16  17
ENDBRANCH   1  16
TORSDOF 11
ENDMDL
MODEL 8
REMARK VINA RESULT:      -7.0     35.512     37.435
REMARK  11 active torsions:
REMARK  status: ('A' for Active; 'I' for Inactive)
REMARK    1  A    between atoms: C_2  and  N_3 
REMARK    2  A    between atoms: N_3  and  C_4 
REMARK    3  A    between atoms: C_5  and  O_7 
REMARK    4  A    between atoms: C_9  and  C_11 
REMARK    5  A    between atoms: C_11  and  O_12 
REMARK    6  A    between atoms: C_11  and  C_13 
REMARK    7  A    between atoms: C_13  and  N_14 
REMARK    8  A    between atoms: N_14  and  C_15 
REMARK    9  A    between atoms: C_15  and  C_16 
REMARK   10  A    between atoms: C_16  and  C_18 
REMARK   11  A    between atoms: C_23  and  O_24 
ROOT
HETATM    1  C   UNK N   1      86.066  39.793  16.347  0.00  0.00     0.179 C 
ENDROOT
BRANCH   1   2
HETATM    2  C   UNK N   1      84.650  39.358  16.038  0.00  0.00    -0.026 A 
HETATM    3  C   UNK N   1      83.815  40.129  15.208  0.00  0.00     0.042 A 
HETATM    4  C   UNK N   1      82.502  39.731  14.950  0.00  0.00     0.068 A 
HETATM    5  C   UNK N   1      82.020  38.554  15.539  0.00  0.00     0.092 A 
HETATM    6  C   UNK N   1      82.828  37.778  16.365  0.00  0.00     0.039 A 
HETATM    7  C   UNK N   1      84.140  38.183  16.614  0.00  0.00     0.012 A 
BRANCH   4   8
HETATM    8  N   UNK N   1      81.611  40.447  14.131  0.00  0.00    -0.332 N 
HETATM    9  H   UNK N   1      81.379  40.011  13.244  0.00  0.00     0.168 HD
BRANCH   8  10
HETATM   10  C   UNK N   1      81.039  41.661  14.358  0.00  0.00     0.353 C 
HETATM   11  O   UNK N   1      79.962  41.794  14.928  0.00  0.00    -0.283 OA
ENDBRANCH   8  10
ENDBRANCH   4   8
BRANCH   5  12
HETATM   12  O   UNK N   1      80.725  38.179  15.283  0.00  0.00    -0.358 OA
HETATM   13  H   UNK N   1      80.128  38.843  15.666  0.00  0.00     0.218 HD
ENDBRANCH   5  12
ENDBRANCH   1   2
BRANCH   1  14
HETATM   14  O   UNK N   1      86.927  38.654  16.452  0.00  0.00    -0.389 OA
HETATM   15  H   UNK N   1      87.766  38.947  16.043  0.00  0.00     0.210 HD
ENDBRANCH   1  14
BRANCH   1  16
HETATM   16  C   UNK N   1      86.626  40.746  15.262  0.00  0.00     0.306 C 
BRANCH  16  17
HETATM   17  N   UNK N   1      87.728  40.079  14.538  0.00  0.00     0.090 N 
HETATM   18  H   UNK N   1      88.612  40.536  14.770  0.00  0.00     0.316 HD
BRANCH  17  19
HETATM   19  C   UNK N   1      87.540  40.096  13.072  0.00  0.00     0.220 C 
HETATM   20  C   UNK N   1      88.616  40.947  12.385  0.00  0.00     0.043 C 
BRANCH  19  21
HETATM   21  C   UNK N   1      87.581  38.631  12.575  0.00  0.00     0.073 C 
BRANCH  21  22
HETATM   22  C   UNK N   1      86.290  37.874  12.784  0.00  0.00    -0.056 A 
HETATM   23  C   UNK N   1      86.273  36.688  13.527  0.00  0.00     0.010 A 
HETATM   24  C   UNK N   1      85.076  35.995  13.725  0.00  0.00     0.037 A 
HETATM   25  C   UNK N   1      83.879  36.470  13.185  0.00  0.00     0.068 A 
HETATM   26  C   UNK N   1      83.890  37.649  12.441  0.00  0.00     0.037 A 
HETATM   27  C   UNK N   1      85.087  38.346  12.241  0.00  0.00     0.010 A 
BRANCH  25  28
HETATM   28  O   UNK N   1      82.783  35.696  13.455  0.00  0.00    -0.356 OA
HETATM   29  C   UNK N   1      81.665  35.845  12.591  0.00  0.00     0.210 C 
ENDBRANCH  25  28
ENDBRANCH  21  22
ENDBRANCH  19  21
ENDBRANCH  17  19
ENDBRANCH  16  17
ENDBRANCH   1  16
TORSDOF 11
ENDMDL
MODEL 9
REMARK VINA RESULT:      -7.0      9.826     12.794
REMARK  11 active torsions:
REMARK  status: ('A' for Active; 'I' for Inactive)
REMARK    1  A    between atoms: C_2  and  N_3 
REMARK    2  A    between atoms: N_3  and  C_4 
REMARK    3  A    between atoms: C_5  and  O_7 
REMARK    4  A    between atoms: C_9  and  C_11 
REMARK    5  A    between atoms: C_11  and  O_12 
REMARK    6  A    between atoms: C_11  and  C_13 
REMARK    7  A    between atoms: C_13  and  N_14 
REMARK    8  A    between atoms: N_14  and  C_15 
REMARK    9  A    between atoms: C_15  and  C_16 
REMARK   10  A    between atoms: C_16  and  C_18 
REMARK   11  A    between atoms: C_23  and  O_24 
ROOT
HETATM    1  C   UNK N   1      81.328  18.688  42.925  0.00  0.00     0.179 C 
ENDROOT
BRANCH   1   2
HETATM    2  C   UNK N   1      80.915  20.078  42.493  0.00  0.00    -0.026 A 
HETATM    3  C   UNK N   1      80.777  20.407  41.131  0.00  0.00     0.042 A 
HETATM    4  C   UNK N   1      80.420  21.699  40.741  0.00  0.00     0.068 A 
HETATM    5  C   UNK N   1      80.211  22.673  41.727  0.00  0.00     0.092 A 
HETATM    6  C   UNK N   1      80.345  22.370  43.080  0.00  0.00     0.039 A 
HETATM    7  C   UNK N   1      80.698  21.074  43.459  0.00  0.00     0.012 A 
BRANCH   4   8
HETATM    8  N   UNK N   1      80.262  22.100  39.403  0.00  0.00    -0.332 N 
HETATM    9  H   UNK N   1      79.308  22.111  39.055  0.00  0.00     0.168 HD
BRANCH   8  10
HETATM   10  C   UNK N   1      81.221  22.451  38.503  0.00  0.00     0.353 C 
HETATM   11  O   UNK N   1      82.320  21.911  38.455  0.00  0.00    -0.283 OA
ENDBRANCH   8  10
ENDBRANCH   4   8
BRANCH   5  12
HETATM   12  O   UNK N   1      79.869  23.940  41.330  0.00  0.00    -0.358 OA
HETATM   13  H   UNK N   1      80.225  24.094  40.440  0.00  0.00     0.218 HD
ENDBRANCH   5  12
ENDBRANCH   1   2
BRANCH   1  14
HETATM   14  O   UNK N   1      82.615  18.361  42.390  0.00  0.00    -0.389 OA
HETATM   15  H   UNK N   1      83.243  18.870  42.943  0.00  0.00     0.210 HD
ENDBRANCH   1  14
BRANCH   1  16
HETATM   16  C   UNK N   1      81.379  18.555  44.467  0.00  0.00     0.306 C 
BRANCH  16  17
HETATM   17  N   UNK N   1      82.784  18.603  44.923  0.00  0.00     0.090 N 
HETATM   18  H   UNK N   1      83.301  17.823  44.513  0.00  0.00     0.316 HD
BRANCH  17  19
HETATM   19  C   UNK N   1      82.907  18.549  46.396  0.00  0.00     0.220 C 
HETATM   20  C   UNK N   1      83.514  17.217  46.852  0.00  0.00     0.043 C 
BRANCH  19  21
HETATM   21  C   UNK N   1      83.784  19.746  46.838  0.00  0.00     0.073 C 
BRANCH  21  22
HETATM   22  C   UNK N   1      83.148  21.096  46.597  0.00  0.00    -0.056 A 
HETATM   23  C   UNK N   1      82.114  21.552  47.422  0.00  0.00     0.010 A 
HETATM   24  C   UNK N   1      81.533  22.804  47.200  0.00  0.00     0.037 A 
HETATM   25  C   UNK N   1      81.973  23.619  46.155  0.00  0.00     0.068 A 
HETATM   26  C   UNK N   1      83.001  23.168  45.329  0.00  0.00     0.037 A 
HETATM   27  C   UNK N   1      83.584  21.915  45.547  0.00  0.00     0.010 A 
BRANCH  25  28
HETATM   28  O   UNK N   1      81.321  24.817  46.052  0.00  0.00    -0.356 OA
HETATM   29  C   UNK N   1      81.948  25.943  46.652  0.00  0.00     0.210 C 
ENDBRANCH  25  28
ENDBRANCH  21  22
ENDBRANCH  19  21
ENDBRANCH  17  19
ENDBRANCH  16  17
ENDBRANCH   1  16
TORSDOF 11
ENDMDL
