MODEL 1
REMARK VINA RESULT:      -7.3      0.000      0.000
REMARK  7 active torsions:
REMARK  status: ('A' for Active; 'I' for Inactive)
REMARK    1  A    between atoms: N_13  and  C_14 
REMARK    2  A    between atoms: C_14  and  O_15 
REMARK    3  A    between atoms: O_15  and  C_16 
REMARK    4  A    between atoms: C_16  and  C_17 
REMARK    5  A    between atoms: C_16  and  C_18 
REMARK    6  A    between atoms: C_17  and  O_19 
REMARK    7  A    between atoms: C_18  and  O_20 
ROOT
HETATM    1  O   UNK N   1      94.084  12.988  38.450  0.00  0.00    -0.265 OA
HETATM    2  C   UNK N   1      94.390  13.563  39.490  0.00  0.00     0.290 A 
HETATM    3  N   UNK N   1      95.710  13.854  39.805  0.00  0.00    -0.154 N 
HETATM    4  C   UNK N   1      93.471  14.015  40.512  0.00  0.00     0.147 A 
HETATM    5  C   UNK N   1      96.118  14.501  40.954  0.00  0.00     0.680 A 
HETATM    6  N   UNK N   1      92.106  13.911  40.593  0.00  0.00    -0.345 N 
ATOM      7  HN  UNK N   1      91.468  13.491  39.917  1.00  0.00     0.167 HD
HETATM    8  C   UNK N   1      93.998  14.654  41.612  0.00  0.00     0.158 A 
HETATM    9  N   UNK N   1      95.299  14.920  41.883  0.00  0.00    -0.174 N 
ATOM     10  HN  UNK N   1      95.608  15.401  42.727  1.00  0.00     0.186 HD
HETATM   11  N   UNK N   1      97.448  14.692  41.098  0.00  0.00    -0.234 N 
HETATM   12  C   UNK N   1      91.805  14.479  41.744  0.00  0.00     0.187 A 
HETATM   13  N   UNK N   1      92.920  14.944  42.398  0.00  0.00    -0.305 N 
HETATM   14  H   UNK N   1      96.385  13.554  39.125  0.00  0.00     0.187 HD
HETATM   15  H   UNK N   1      98.138  14.359  40.444  0.00  0.00     0.174 HD
HETATM   16  H   UNK N   1      97.770  15.140  41.947  0.00  0.00     0.174 HD
ENDROOT
BRANCH  13  17
HETATM   17  C   UNK N   1      92.907  15.645  43.668  0.00  0.00     0.301 C 
BRANCH  17  18
HETATM   18  O   UNK N   1      92.541  17.015  43.505  0.00  0.00    -0.362 OA
BRANCH  18  19
HETATM   19  C   UNK N   1      91.216  17.349  43.961  0.00  0.00     0.170 C 
BRANCH  19  20
HETATM   20  C   UNK N   1      91.166  18.800  44.457  0.00  0.00     0.198 C 
BRANCH  20  21
HETATM   21  O   UNK N   1      90.332  19.587  43.607  0.00  0.00    -0.398 OA
HETATM   22  H   UNK N   1      90.475  19.269  42.697  0.00  0.00     0.209 HD
ENDBRANCH  20  21
ENDBRANCH  19  20
BRANCH  19  23
HETATM   23  C   UNK N   1      90.915  16.384  45.113  0.00  0.00     0.198 C 
BRANCH  23  24
HETATM   24  O   UNK N   1      89.672  15.716  44.894  0.00  0.00    -0.398 OA
HETATM   25  H   UNK N   1      89.343  16.020  44.020  0.00  0.00     0.209 HD
ENDBRANCH  23  24
ENDBRANCH  19  23
ENDBRANCH  18  19
ENDBRANCH  17  18
ENDBRANCH  13  17
TORSDOF 7
ENDMDL
MODEL 2
REMARK VINA RESULT:      -7.2     11.664     12.694
REMARK  7 active torsions:
REMARK  status: ('A' for Active; 'I' for Inactive)
REMARK    1  A    between atoms: N_13  and  C_14 
REMARK    2  A    between atoms: C_14  and  O_15 
REMARK    3  A    between atoms: O_15  and  C_16 
REMARK    4  A    between atoms: C_16  and  C_17 
REMARK    5  A    between atoms: C_16  and  C_18 
REMARK    6  A    between atoms: C_17  and  O_19 
REMARK    7  A    between atoms: C_18  and  O_20 
ROOT
HETATM    1  O   UNK N   1      89.201  25.648  46.355  0.00  0.00    -0.265 OA
HETATM    2  C   UNK N   1      90.419  25.775  46.283  0.00  0.00     0.290 A 
HETATM    3  N   UNK N   1      91.026  26.433  45.221  0.00  0.00    -0.154 N 
HETATM    4  C   UNK N   1      91.381  25.285  47.245  0.00  0.00     0.147 A 
HETATM    5  C   UNK N   1      92.387  26.611  45.084  0.00  0.00     0.680 A 
HETATM    6  N   UNK N   1      91.201  24.580  48.408  0.00  0.00    -0.345 N 
ATOM      7  HN  UNK N   1      90.322  24.273  48.825  1.00  0.00     0.167 HD
HETATM    8  C   UNK N   1      92.715  25.529  47.001  0.00  0.00     0.158 A 
HETATM    9  N   UNK N   1      93.268  26.180  45.948  0.00  0.00    -0.174 N 
ATOM     10  HN  UNK N   1      94.273  26.319  45.842  1.00  0.00     0.186 HD
HETATM   11  N   UNK N   1      92.800  27.270  43.979  0.00  0.00    -0.234 N 
HETATM   12  C   UNK N   1      92.423  24.391  48.866  0.00  0.00     0.187 A 
HETATM   13  N   UNK N   1      93.374  24.949  48.046  0.00  0.00    -0.305 N 
HETATM   14  H   UNK N   1      90.395  26.786  44.524  0.00  0.00     0.187 HD
HETATM   15  H   UNK N   1      92.182  27.592  43.252  0.00  0.00     0.174 HD
HETATM   16  H   UNK N   1      93.797  27.386  43.846  0.00  0.00     0.174 HD
ENDROOT
BRANCH  13  17
HETATM   17  C   UNK N   1      94.802  24.936  48.301  0.00  0.00     0.301 C 
BRANCH  17  18
HETATM   18  O   UNK N   1      95.184  25.985  49.188  0.00  0.00    -0.362 OA
BRANCH  18  19
HETATM   19  C   UNK N   1      96.209  26.864  48.687  0.00  0.00     0.170 C 
BRANCH  19  20
HETATM   20  C   UNK N   1      95.653  28.277  48.472  0.00  0.00     0.198 C 
BRANCH  20  21
HETATM   21  O   UNK N   1      94.959  28.354  47.226  0.00  0.00    -0.398 OA
HETATM   22  H   UNK N   1      94.172  27.786  47.306  0.00  0.00     0.209 HD
ENDBRANCH  20  21
ENDBRANCH  19  20
BRANCH  19  23
HETATM   23  C   UNK N   1      96.658  26.262  47.350  0.00  0.00     0.198 C 
BRANCH  23  24
HETATM   24  O   UNK N   1      97.480  27.185  46.637  0.00  0.00    -0.398 OA
HETATM   25  H   UNK N   1      97.185  27.156  45.700  0.00  0.00     0.209 HD
ENDBRANCH  23  24
ENDBRANCH  19  23
ENDBRANCH  18  19
ENDBRANCH  17  18
ENDBRANCH  13  17
TORSDOF 7
ENDMDL
MODEL 3
REMARK VINA RESULT:      -6.8      3.597      6.436
REMARK  7 active torsions:
REMARK  status: ('A' for Active; 'I' for Inactive)
REMARK    1  A    between atoms: N_13  and  C_14 
REMARK    2  A    between atoms: C_14  and  O_15 
REMARK    3  A    between atoms: O_15  and  C_16 
REMARK    4  A    between atoms: C_16  and  C_17 
REMARK    5  A    between atoms: C_16  and  C_18 
REMARK    6  A    between atoms: C_17  and  O_19 
REMARK    7  A    between atoms: C_18  and  O_20 
ROOT
HETATM    1  O   UNK N   1      90.922  15.348  46.453  0.00  0.00    -0.265 OA
HETATM    2  C   UNK N   1      90.738  15.729  45.301  0.00  0.00     0.290 A 
HETATM    3  N   UNK N   1      90.827  17.070  44.950  0.00  0.00    -0.154 N 
HETATM    4  C   UNK N   1      90.414  14.888  44.170  0.00  0.00     0.147 A 
HETATM    5  C   UNK N   1      90.636  17.560  43.674  0.00  0.00     0.680 A 
HETATM    6  N   UNK N   1      90.221  13.532  44.093  0.00  0.00    -0.345 N 
ATOM      7  HN  UNK N   1      90.286  12.846  44.845  1.00  0.00     0.167 HD
HETATM    8  C   UNK N   1      90.251  15.494  42.944  0.00  0.00     0.158 A 
HETATM    9  N   UNK N   1      90.349  16.812  42.642  0.00  0.00    -0.174 N 
ATOM     10  HN  UNK N   1      90.213  17.182  41.701  1.00  0.00     0.186 HD
HETATM   11  N   UNK N   1      90.754  18.897  43.520  0.00  0.00    -0.234 N 
HETATM   12  C   UNK N   1      89.936  13.316  42.824  0.00  0.00     0.187 A 
HETATM   13  N   UNK N   1      89.942  14.476  42.089  0.00  0.00    -0.305 N 
HETATM   14  H   UNK N   1      91.046  17.693  45.707  0.00  0.00     0.187 HD
HETATM   15  H   UNK N   1      90.931  19.538  44.277  0.00  0.00     0.174 HD
HETATM   16  H   UNK N   1      90.590  19.281  42.597  0.00  0.00     0.174 HD
ENDROOT
BRANCH  13  17
HETATM   17  C   UNK N   1      89.699  14.556  40.661  0.00  0.00     0.301 C 
BRANCH  17  18
HETATM   18  O   UNK N   1      90.768  15.217  39.985  0.00  0.00    -0.362 OA
BRANCH  18  19
HETATM   19  C   UNK N   1      91.232  14.559  38.790  0.00  0.00     0.170 C 
BRANCH  19  20
HETATM   20  C   UNK N   1      90.331  13.367  38.444  0.00  0.00     0.198 C 
BRANCH  20  21
HETATM   21  O   UNK N   1      90.814  12.701  37.278  0.00  0.00    -0.398 OA
HETATM   22  H   UNK N   1      90.547  11.767  37.355  0.00  0.00     0.209 HD
ENDBRANCH  20  21
ENDBRANCH  19  20
BRANCH  19  23
HETATM   23  C   UNK N   1      92.652  14.076  39.105  0.00  0.00     0.198 C 
BRANCH  23  24
HETATM   24  O   UNK N   1      93.390  13.874  37.899  0.00  0.00    -0.398 OA
HETATM   25  H   UNK N   1      94.270  13.528  38.166  0.00  0.00     0.209 HD
ENDBRANCH  23  24
ENDBRANCH  19  23
ENDBRANCH  18  19
ENDBRANCH  17  18
ENDBRANCH  13  17
TORSDOF 7
ENDMDL
MODEL 4
REMARK VINA RESULT:      -6.7      3.129      4.650
REMARK  7 active torsions:
REMARK  status: ('A' for Active; 'I' for Inactive)
REMARK    1  A    between atoms: N_13  and  C_14 
REMARK    2  A    between atoms: C_14  and  O_15 
REMARK    3  A    between atoms: O_15  and  C_16 
REMARK    4  A    between atoms: C_16  and  C_17 
REMARK    5  A    between atoms: C_16  and  C_18 
REMARK    6  A    between atoms: C_17  and  O_19 
REMARK    7  A    between atoms: C_18  and  O_20 
ROOT
HETATM    1  O   UNK N   1      87.254  13.284  40.265  0.00  0.00    -0.265 OA
HETATM    2  C   UNK N   1      88.276  13.684  40.813  0.00  0.00     0.290 A 
HETATM    3  N   UNK N   1      89.481  13.786  40.132  0.00  0.00    -0.154 N 
HETATM    4  C   UNK N   1      88.392  14.099  42.194  0.00  0.00     0.147 A 
HETATM    5  C   UNK N   1      90.662  14.232  40.689  0.00  0.00     0.680 A 
HETATM    6  N   UNK N   1      87.455  14.137  43.196  0.00  0.00    -0.345 N 
ATOM      7  HN  UNK N   1      86.470  13.879  43.143  1.00  0.00     0.167 HD
HETATM    8  C   UNK N   1      89.623  14.531  42.634  0.00  0.00     0.158 A 
HETATM    9  N   UNK N   1      90.781  14.616  41.933  0.00  0.00    -0.174 N 
ATOM     10  HN  UNK N   1      91.656  14.948  42.337  1.00  0.00     0.186 HD
HETATM   11  N   UNK N   1      91.740  14.255  39.876  0.00  0.00    -0.234 N 
HETATM   12  C   UNK N   1      88.119  14.583  44.244  0.00  0.00     0.187 A 
HETATM   13  N   UNK N   1      89.437  14.835  43.952  0.00  0.00    -0.305 N 
HETATM   14  H   UNK N   1      89.449  13.502  39.168  0.00  0.00     0.187 HD
HETATM   15  H   UNK N   1      91.732  13.934  38.921  0.00  0.00     0.174 HD
HETATM   16  H   UNK N   1      92.623  14.552  40.273  0.00  0.00     0.174 HD
ENDROOT
BRANCH  13  17
HETATM   17  C   UNK N   1      90.410  15.365  44.888  0.00  0.00     0.301 C 
BRANCH  17  18
HETATM   18  O   UNK N   1      90.378  16.791  44.924  0.00  0.00    -0.362 OA
BRANCH  18  19
HETATM   19  C   UNK N   1      91.271  17.443  44.000  0.00  0.00     0.170 C 
BRANCH  19  20
HETATM   20  C   UNK N   1      92.689  16.875  44.126  0.00  0.00     0.198 C 
BRANCH  20  21
HETATM   21  O   UNK N   1      93.062  16.199  42.925  0.00  0.00    -0.398 OA
HETATM   22  H   UNK N   1      92.254  16.112  42.388  0.00  0.00     0.209 HD
ENDBRANCH  20  21
ENDBRANCH  19  20
BRANCH  19  23
HETATM   23  C   UNK N   1      91.258  18.927  44.386  0.00  0.00     0.198 C 
BRANCH  23  24
HETATM   24  O   UNK N   1      90.301  19.640  43.601  0.00  0.00    -0.398 OA
HETATM   25  H   UNK N   1      90.527  19.466  42.661  0.00  0.00     0.209 HD
ENDBRANCH  23  24
ENDBRANCH  19  23
ENDBRANCH  18  19
ENDBRANCH  17  18
ENDBRANCH  13  17
TORSDOF 7
ENDMDL
MODEL 5
REMARK VINA RESULT:      -6.6     31.083     33.351
REMARK  7 active torsions:
REMARK  status: ('A' for Active; 'I' for Inactive)
REMARK    1  A    between atoms: N_13  and  C_14 
REMARK    2  A    between atoms: C_14  and  O_15 
REMARK    3  A    between atoms: O_15  and  C_16 
REMARK    4  A    between atoms: C_16  and  C_17 
REMARK    5  A    between atoms: C_16  and  C_18 
REMARK    6  A    between atoms: C_17  and  O_19 
REMARK    7  A    between atoms: C_18  and  O_20 
ROOT
HETATM    1  O   UNK N   1      78.439   9.416  15.773  0.00  0.00    -0.265 OA
HETATM    2  C   UNK N   1      77.938   8.382  16.203  0.00  0.00     0.290 A 
HETATM    3  N   UNK N   1      78.638   7.520  17.037  0.00  0.00    -0.154 N 
HETATM    4  C   UNK N   1      76.599   7.909  15.929  0.00  0.00     0.147 A 
HETATM    5  C   UNK N   1      78.131   6.346  17.556  0.00  0.00     0.680 A 
HETATM    6  N   UNK N   1      75.604   8.447  15.152  0.00  0.00    -0.345 N 
ATOM      7  HN  UNK N   1      75.627   9.315  14.618  1.00  0.00     0.167 HD
HETATM    8  C   UNK N   1      76.204   6.725  16.510  0.00  0.00     0.158 A 
HETATM    9  N   UNK N   1      76.921   5.910  17.323  0.00  0.00    -0.174 N 
ATOM     10  HN  UNK N   1      76.552   5.044  17.714  1.00  0.00     0.186 HD
HETATM   11  N   UNK N   1      78.961   5.629  18.344  0.00  0.00    -0.234 N 
HETATM   12  C   UNK N   1      74.610   7.587  15.256  0.00  0.00     0.187 A 
HETATM   13  N   UNK N   1      74.927   6.526  16.068  0.00  0.00    -0.305 N 
HETATM   14  H   UNK N   1      79.577   7.806  17.250  0.00  0.00     0.187 HD
HETATM   15  H   UNK N   1      79.918   5.882  18.532  0.00  0.00     0.174 HD
HETATM   16  H   UNK N   1      78.618   4.750  18.712  0.00  0.00     0.174 HD
ENDROOT
BRANCH  13  17
HETATM   17  C   UNK N   1      74.029   5.437  16.403  0.00  0.00     0.301 C 
BRANCH  17  18
HETATM   18  O   UNK N   1      72.806   5.526  15.674  0.00  0.00    -0.362 OA
BRANCH  18  19
HETATM   19  C   UNK N   1      72.391   4.306  15.029  0.00  0.00     0.170 C 
BRANCH  19  20
HETATM   20  C   UNK N   1      72.966   3.086  15.760  0.00  0.00     0.198 C 
BRANCH  20  21
HETATM   21  O   UNK N   1      72.217   1.915  15.436  0.00  0.00    -0.398 OA
HETATM   22  H   UNK N   1      71.380   2.215  15.039  0.00  0.00     0.209 HD
ENDBRANCH  20  21
ENDBRANCH  19  20
BRANCH  19  23
HETATM   23  C   UNK N   1      72.945   4.379  13.602  0.00  0.00     0.198 C 
BRANCH  23  24
HETATM   24  O   UNK N   1      72.374   3.352  12.790  0.00  0.00    -0.398 OA
HETATM   25  H   UNK N   1      71.404   3.384  12.942  0.00  0.00     0.209 HD
ENDBRANCH  23  24
ENDBRANCH  19  23
ENDBRANCH  18  19
ENDBRANCH  17  18
ENDBRANCH  13  17
TORSDOF 7
ENDMDL
MODEL 6
REMARK VINA RESULT:      -6.6      3.081      6.241
REMARK  7 active torsions:
REMARK  status: ('A' for Active; 'I' for Inactive)
REMARK    1  A    between atoms: N_13  and  C_14 
REMARK    2  A    between atoms: C_14  and  O_15 
REMARK    3  A    between atoms: O_15  and  C_16 
REMARK    4  A    between atoms: C_16  and  C_17 
REMARK    5  A    between atoms: C_16  and  C_18 
REMARK    6  A    between atoms: C_17  and  O_19 
REMARK    7  A    between atoms: C_18  and  O_20 
ROOT
HETATM    1  O   UNK N   1      88.376  15.136  44.864  0.00  0.00    -0.265 OA
HETATM    2  C   UNK N   1      89.285  15.275  44.051  0.00  0.00     0.290 A 
HETATM    3  N   UNK N   1      90.491  15.870  44.397  0.00  0.00    -0.154 N 
HETATM    4  C   UNK N   1      89.256  14.863  42.666  0.00  0.00     0.147 A 
HETATM    5  C   UNK N   1      91.552  16.053  43.533  0.00  0.00     0.680 A 
HETATM    6  N   UNK N   1      88.263  14.261  41.934  0.00  0.00    -0.345 N 
ATOM      7  HN  UNK N   1      87.337  13.975  42.251  1.00  0.00     0.167 HD
HETATM    8  C   UNK N   1      90.379  15.094  41.903  0.00  0.00     0.158 A 
HETATM    9  N   UNK N   1      91.542  15.679  42.280  0.00  0.00    -0.174 N 
ATOM     10  HN  UNK N   1      92.331  15.814  41.649  1.00  0.00     0.186 HD
HETATM   11  N   UNK N   1      92.645  16.660  44.042  0.00  0.00    -0.234 N 
HETATM   12  C   UNK N   1      88.780  14.133  40.729  0.00  0.00     0.187 A 
HETATM   13  N   UNK N   1      90.061  14.625  40.661  0.00  0.00    -0.305 N 
HETATM   14  H   UNK N   1      90.555  16.178  45.351  0.00  0.00     0.187 HD
HETATM   15  H   UNK N   1      92.707  17.011  44.984  0.00  0.00     0.174 HD
HETATM   16  H   UNK N   1      93.424  16.829  43.417  0.00  0.00     0.174 HD
ENDROOT
BRANCH  13  17
HETATM   17  C   UNK N   1      90.901  14.595  39.479  0.00  0.00     0.301 C 
BRANCH  17  18
HETATM   18  O   UNK N   1      92.259  14.305  39.809  0.00  0.00    -0.362 OA
BRANCH  18  19
HETATM   19  C   UNK N   1      92.679  12.956  39.532  0.00  0.00     0.170 C 
BRANCH  19  20
HETATM   20  C   UNK N   1      94.184  12.796  39.783  0.00  0.00     0.198 C 
BRANCH  20  21
HETATM   21  O   UNK N   1      94.885  13.968  39.366  0.00  0.00    -0.398 OA
HETATM   22  H   UNK N   1      94.282  14.467  38.786  0.00  0.00     0.209 HD
ENDBRANCH  20  21
ENDBRANCH  19  20
BRANCH  19  23
HETATM   23  C   UNK N   1      92.360  12.716  38.051  0.00  0.00     0.198 C 
BRANCH  23  24
HETATM   24  O   UNK N   1      93.339  13.341  37.221  0.00  0.00    -0.398 OA
HETATM   25  H   UNK N   1      94.210  13.180  37.646  0.00  0.00     0.209 HD
ENDBRANCH  23  24
ENDBRANCH  19  23
ENDBRANCH  18  19
ENDBRANCH  17  18
ENDBRANCH  13  17
TORSDOF 7
ENDMDL
MODEL 7
REMARK VINA RESULT:      -6.6      2.333      6.257
REMARK  7 active torsions:
REMARK  status: ('A' for Active; 'I' for Inactive)
REMARK    1  A    between atoms: N_13  and  C_14 
REMARK    2  A    between atoms: C_14  and  O_15 
REMARK    3  A    between atoms: O_15  and  C_16 
REMARK    4  A    between atoms: C_16  and  C_17 
REMARK    5  A    between atoms: C_16  and  C_18 
REMARK    6  A    between atoms: C_17  and  O_19 
REMARK    7  A    between atoms: C_18  and  O_20 
ROOT
HETATM    1  O   UNK N   1      90.803  16.921  45.463  0.00  0.00    -0.265 OA
HETATM    2  C   UNK N   1      90.775  16.248  44.438  0.00  0.00     0.290 A 
HETATM    3  N   UNK N   1      89.578  15.860  43.849  0.00  0.00    -0.154 N 
HETATM    4  C   UNK N   1      91.925  15.768  43.705  0.00  0.00     0.147 A 
HETATM    5  C   UNK N   1      89.479  15.107  42.697  0.00  0.00     0.680 A 
HETATM    6  N   UNK N   1      93.266  15.914  43.954  0.00  0.00    -0.345 N 
ATOM      7  HN  UNK N   1      93.710  16.416  44.723  1.00  0.00     0.167 HD
HETATM    8  C   UNK N   1      91.699  15.030  42.565  0.00  0.00     0.158 A 
HETATM    9  N   UNK N   1      90.509  14.672  42.021  0.00  0.00    -0.174 N 
ATOM     10  HN  UNK N   1      90.427  14.120  41.167  1.00  0.00     0.186 HD
HETATM   11  N   UNK N   1      88.229  14.817  42.274  0.00  0.00    -0.234 N 
HETATM   12  C   UNK N   1      93.852  15.260  42.971  0.00  0.00     0.187 A 
HETATM   13  N   UNK N   1      92.942  14.706  42.104  0.00  0.00    -0.305 N 
HETATM   14  H   UNK N   1      88.750  16.167  44.329  0.00  0.00     0.187 HD
HETATM   15  H   UNK N   1      87.392  15.083  42.767  0.00  0.00     0.174 HD
HETATM   16  H   UNK N   1      88.134  14.242  41.446  0.00  0.00     0.174 HD
ENDROOT
BRANCH  13  17
HETATM   17  C   UNK N   1      93.281  13.958  40.908  0.00  0.00     0.301 C 
BRANCH  17  18
HETATM   18  O   UNK N   1      92.198  13.132  40.483  0.00  0.00    -0.362 OA
BRANCH  18  19
HETATM   19  C   UNK N   1      92.032  13.032  39.056  0.00  0.00     0.170 C 
BRANCH  19  20
HETATM   20  C   UNK N   1      93.211  13.689  38.327  0.00  0.00     0.198 C 
BRANCH  20  21
HETATM   21  O   UNK N   1      94.090  12.692  37.805  0.00  0.00    -0.398 OA
HETATM   22  H   UNK N   1      94.969  12.862  38.190  0.00  0.00     0.209 HD
ENDBRANCH  20  21
ENDBRANCH  19  20
BRANCH  19  23
HETATM   23  C   UNK N   1      90.730  13.775  38.734  0.00  0.00     0.198 C 
BRANCH  23  24
HETATM   24  O   UNK N   1      90.843  15.156  39.081  0.00  0.00    -0.398 OA
HETATM   25  H   UNK N   1      90.665  15.217  40.045  0.00  0.00     0.209 HD
ENDBRANCH  23  24
ENDBRANCH  19  23
ENDBRANCH  18  19
ENDBRANCH  17  18
ENDBRANCH  13  17
TORSDOF 7
ENDMDL
MODEL 8
REMARK VINA RESULT:      -6.5      4.154      6.161
REMARK  7 active torsions:
REMARK  status: ('A' for Active; 'I' for Inactive)
REMARK    1  A    between atoms: N_13  and  C_14 
REMARK    2  A    between atoms: C_14  and  O_15 
REMARK    3  A    between atoms: O_15  and  C_16 
REMARK    4  A    between atoms: C_16  and  C_17 
REMARK    5  A    between atoms: C_16  and  C_18 
REMARK    6  A    between atoms: C_17  and  O_19 
REMARK    7  A    between atoms: C_18  and  O_20 
ROOT
HETATM    1  O   UNK N   1      86.036  11.880  41.846  0.00  0.00    -0.265 OA
HETATM    2  C   UNK N   1      86.650  12.794  42.387  0.00  0.00     0.290 A 
HETATM    3  N   UNK N   1      86.205  13.377  43.567  0.00  0.00    -0.154 N 
HETATM    4  C   UNK N   1      87.879  13.390  41.913  0.00  0.00     0.147 A 
HETATM    5  C   UNK N   1      86.851  14.403  44.226  0.00  0.00     0.680 A 
HETATM    6  N   UNK N   1      88.628  13.120  40.795  0.00  0.00    -0.345 N 
ATOM      7  HN  UNK N   1      88.452  12.418  40.077  1.00  0.00     0.167 HD
HETATM    8  C   UNK N   1      88.432  14.405  42.661  0.00  0.00     0.158 A 
HETATM    9  N   UNK N   1      87.965  14.946  43.813  0.00  0.00    -0.174 N 
ATOM     10  HN  UNK N   1      88.438  15.702  44.308  1.00  0.00     0.186 HD
HETATM   11  N   UNK N   1      86.266  14.852  45.359  0.00  0.00    -0.234 N 
HETATM   12  C   UNK N   1      89.629  13.975  40.861  0.00  0.00     0.187 A 
HETATM   13  N   UNK N   1      89.553  14.775  41.975  0.00  0.00    -0.305 N 
HETATM   14  H   UNK N   1      85.349  12.997  43.931  0.00  0.00     0.187 HD
HETATM   15  H   UNK N   1      85.388  14.509  45.712  0.00  0.00     0.174 HD
HETATM   16  H   UNK N   1      86.709  15.624  45.842  0.00  0.00     0.174 HD
ENDROOT
BRANCH  13  17
HETATM   17  C   UNK N   1      90.526  15.788  42.340  0.00  0.00     0.301 C 
BRANCH  17  18
HETATM   18  O   UNK N   1      89.969  16.748  43.236  0.00  0.00    -0.362 OA
BRANCH  18  19
HETATM   19  C   UNK N   1      90.886  17.269  44.217  0.00  0.00     0.170 C 
BRANCH  19  20
HETATM   20  C   UNK N   1      90.984  18.796  44.109  0.00  0.00     0.198 C 
BRANCH  20  21
HETATM   21  O   UNK N   1      91.198  19.372  45.398  0.00  0.00    -0.398 OA
HETATM   22  H   UNK N   1      91.212  20.339  45.276  0.00  0.00     0.209 HD
ENDBRANCH  20  21
ENDBRANCH  19  20
BRANCH  19  23
HETATM   23  C   UNK N   1      92.243  16.628  43.901  0.00  0.00     0.198 C 
BRANCH  23  24
HETATM   24  O   UNK N   1      93.303  17.554  44.145  0.00  0.00    -0.398 OA
HETATM   25  H   UNK N   1      93.041  18.074  44.937  0.00  0.00     0.209 HD
ENDBRANCH  23  24
ENDBRANCH  19  23
ENDBRANCH  18  19
ENDBRANCH  17  18
ENDBRANCH  13  17
TORSDOF 7
ENDMDL
MODEL 9
REMARK VINA RESULT:      -6.5      1.343      2.943
REMARK  7 active torsions:
REMARK  status: ('A' for Active; 'I' for Inactive)
REMARK    1  A    between atoms: N_13  and  C_14 
REMARK    2  A    between atoms: C_14  and  O_15 
REMARK    3  A    between atoms: O_15  and  C_16 
REMARK    4  A    between atoms: C_16  and  C_17 
REMARK    5  A    between atoms: C_16  and  C_18 
REMARK    6  A    between atoms: C_17  and  O_19 
REMARK    7  A    between atoms: C_18  and  O_20 
ROOT
HETATM    1  O   UNK N   1      96.099  13.542  39.475  0.00  0.00    -0.265 OA
HETATM    2  C   UNK N   1      94.991  13.802  39.932  0.00  0.00     0.290 A 
HETATM    3  N   UNK N   1      93.857  13.836  39.131  0.00  0.00    -0.154 N 
HETATM    4  C   UNK N   1      94.692  14.101  41.315  0.00  0.00     0.147 A 
HETATM    5  C   UNK N   1      92.585  14.118  39.584  0.00  0.00     0.680 A 
HETATM    6  N   UNK N   1      95.517  14.185  42.409  0.00  0.00    -0.345 N 
ATOM      7  HN  UNK N   1      96.525  14.035  42.446  1.00  0.00     0.167 HD
HETATM    8  C   UNK N   1      93.381  14.362  41.648  0.00  0.00     0.158 A 
HETATM    9  N   UNK N   1      92.299  14.384  40.832  0.00  0.00    -0.174 N 
ATOM     10  HN  UNK N   1      91.355  14.587  41.160  1.00  0.00     0.186 HD
HETATM   11  N   UNK N   1      91.602  14.115  38.658  0.00  0.00    -0.234 N 
HETATM   12  C   UNK N   1      94.709  14.503  43.401  0.00  0.00     0.187 A 
HETATM   13  N   UNK N   1      93.404  14.621  42.988  0.00  0.00    -0.305 N 
HETATM   14  H   UNK N   1      94.018  13.639  38.159  0.00  0.00     0.187 HD
HETATM   15  H   UNK N   1      91.755  13.961  37.674  0.00  0.00     0.174 HD
HETATM   16  H   UNK N   1      90.665  14.347  38.965  0.00  0.00     0.174 HD
ENDROOT
BRANCH  13  17
HETATM   17  C   UNK N   1      92.282  14.927  43.855  0.00  0.00     0.301 C 
BRANCH  17  18
HETATM   18  O   UNK N   1      92.328  16.277  44.313  0.00  0.00    -0.362 OA
BRANCH  18  19
HETATM   19  C   UNK N   1      91.052  16.845  44.664  0.00  0.00     0.170 C 
BRANCH  19  20
HETATM   20  C   UNK N   1      89.920  16.141  43.905  0.00  0.00     0.198 C 
BRANCH  20  21
HETATM   21  O   UNK N   1      89.101  15.401  44.810  0.00  0.00    -0.398 OA
HETATM   22  H   UNK N   1      88.987  14.513  44.426  0.00  0.00     0.209 HD
ENDBRANCH  20  21
ENDBRANCH  19  20
BRANCH  19  23
HETATM   23  C   UNK N   1      91.126  18.321  44.255  0.00  0.00     0.198 C 
BRANCH  23  24
HETATM   24  O   UNK N   1      91.138  19.160  45.410  0.00  0.00    -0.398 OA
HETATM   25  H   UNK N   1      90.969  20.074  45.092  0.00  0.00     0.209 HD
ENDBRANCH  23  24
ENDBRANCH  19  23
ENDBRANCH  18  19
ENDBRANCH  17  18
ENDBRANCH  13  17
TORSDOF 7
ENDMDL
