MODEL 1
REMARK VINA RESULT:      -8.3      0.000      0.000
REMARK  7 active torsions:
REMARK  status: ('A' for Active; 'I' for Inactive)
REMARK    1  A    between atoms: C_3  and  N_7 
REMARK    2  A    between atoms: N_13  and  C_19 
REMARK    3  A    between atoms: C_15  and  C_22 
REMARK    4  A    between atoms: C_17  and  C_23 
REMARK    5  A    between atoms: N_20  and  O_26 
REMARK    6  A    between atoms: C_22  and  N_27 
REMARK    7  A    between atoms: C_23  and  O_29 
ROOT
HETATM    1  F   UNK N   1      79.719  29.962  36.996  0.00  0.00    -0.202 F 
HETATM    2  C   UNK N   1      80.136  28.695  36.849  0.00  0.00     0.161 A 
HETATM    3  C   UNK N   1      79.305  27.710  36.300  0.00  0.00     0.144 A 
HETATM    4  C   UNK N   1      81.419  28.382  37.272  0.00  0.00     0.065 A 
HETATM    5  N   UNK N   1      79.760  26.437  36.179  0.00  0.00    -0.325 N 
ATOM      6  HN  UNK N   1      79.154  25.718  35.784  1.00  0.00     0.169 HD
HETATM    7  C   UNK N   1      81.865  27.071  37.138  0.00  0.00     0.062 A 
HETATM    8  C   UNK N   1      81.016  26.115  36.581  0.00  0.00     0.123 A 
HETATM    9  C   UNK N   1      83.225  26.692  37.582  0.00  0.00     0.204 A 
HETATM   10  N   UNK N   1      81.490  24.782  36.441  0.00  0.00    -0.337 N 
HETATM   11  O   UNK N   1      83.976  27.563  38.006  0.00  0.00    -0.286 OA
HETATM   12  C   UNK N   1      83.623  25.263  37.489  0.00  0.00     0.104 A 
HETATM   13  C   UNK N   1      82.729  24.428  36.933  0.00  0.00     0.115 A 
ENDROOT
BRANCH   3  14
HETATM   14  N   UNK N   1      78.033  27.954  35.852  0.00  0.00    -0.359 N 
HETATM   15  C   UNK N   1      77.829  28.576  34.546  0.00  0.00     0.179 C 
HETATM   16  C   UNK N   1      76.322  28.579  34.420  0.00  0.00     0.035 C 
HETATM   17  N   UNK N   1      75.626  28.951  33.391  0.00  0.00    -0.273 N 
HETATM   18  C   UNK N   1      75.653  28.102  35.682  0.00  0.00     0.081 C 
ATOM     19  HN  UNK N   1      74.608  28.942  33.342  1.00  0.00     0.193 HD
HETATM   20  C   UNK N   1      76.806  27.394  36.405  0.00  0.00     0.137 C 
BRANCH  17  21
HETATM   21  O   UNK N   1      76.474  29.369  32.356  0.00  0.00    -0.285 OA
HETATM   22  C   UNK N   1      76.407  30.787  32.265  0.00  0.00     0.237 C 
ENDBRANCH  17  21
BRANCH  18  23
HETATM   23  C   UNK N   1      75.044  29.266  36.472  0.00  0.00     0.278 C 
BRANCH  23  24
HETATM   24  N   UNK N   1      75.617  30.589  36.226  0.00  0.00     0.079 N 
HETATM   25  H   UNK N   1      75.595  31.153  37.077  0.00  0.00     0.312 HD
HETATM   26  H   UNK N   1      76.605  30.496  35.985  0.00  0.00     0.312 HD
ENDBRANCH  23  24
ENDBRANCH  18  23
ENDBRANCH   3  14
BRANCH  10  27
HETATM   27  C   UNK N   1      80.598  23.744  35.897  0.00  0.00     0.091 A 
HETATM   28  C   UNK N   1      80.832  22.279  36.171  0.00  0.00     0.028 A 
HETATM   29  C   UNK N   1      79.639  22.964  36.763  0.00  0.00     0.028 A 
ENDBRANCH  10  27
BRANCH  12  30
HETATM   30  C   UNK N   1      84.917  24.770  37.997  0.00  0.00     0.181 C 
HETATM   31  O   UNK N   1      85.521  23.778  37.635  0.00  0.00    -0.646 OA
BRANCH  30  32
HETATM   32  O   UNK N   1      85.440  25.549  38.966  0.00  0.00    -0.772 OA
HETATM   33  H   UNK N   1      84.650  25.823  39.480  0.00  0.00     0.167 HD
ENDBRANCH  30  32
ENDBRANCH  12  30
TORSDOF 7
ENDMDL
MODEL 2
REMARK VINA RESULT:      -7.3     17.047     18.527
REMARK  7 active torsions:
REMARK  status: ('A' for Active; 'I' for Inactive)
REMARK    1  A    between atoms: C_3  and  N_7 
REMARK    2  A    between atoms: N_13  and  C_19 
REMARK    3  A    between atoms: C_15  and  C_22 
REMARK    4  A    between atoms: C_17  and  C_23 
REMARK    5  A    between atoms: N_20  and  O_26 
REMARK    6  A    between atoms: C_22  and  N_27 
REMARK    7  A    between atoms: C_23  and  O_29 
ROOT
HETATM    1  F   UNK N   1      87.323  12.671  39.763  0.00  0.00    -0.202 F 
HETATM    2  C   UNK N   1      88.486  13.162  40.219  0.00  0.00     0.161 A 
HETATM    3  C   UNK N   1      89.712  12.773  39.664  0.00  0.00     0.144 A 
HETATM    4  C   UNK N   1      88.440  14.063  41.272  0.00  0.00     0.065 A 
HETATM    5  N   UNK N   1      90.867  13.284  40.161  0.00  0.00    -0.325 N 
ATOM      6  HN  UNK N   1      91.761  12.998  39.762  1.00  0.00     0.169 HD
HETATM    7  C   UNK N   1      89.636  14.575  41.766  0.00  0.00     0.062 A 
HETATM    8  C   UNK N   1      90.840  14.173  41.188  0.00  0.00     0.123 A 
HETATM    9  C   UNK N   1      89.633  15.533  42.893  0.00  0.00     0.204 A 
HETATM   10  N   UNK N   1      92.053  14.712  41.696  0.00  0.00    -0.337 N 
HETATM   11  O   UNK N   1      88.560  15.922  43.341  0.00  0.00    -0.286 OA
HETATM   12  C   UNK N   1      90.942  15.988  43.433  0.00  0.00     0.104 A 
HETATM   13  C   UNK N   1      92.039  15.542  42.798  0.00  0.00     0.115 A 
ENDROOT
BRANCH   3  14
HETATM   14  N   UNK N   1      89.827  11.898  38.616  0.00  0.00    -0.359 N 
HETATM   15  C   UNK N   1      88.938  12.023  37.464  0.00  0.00     0.179 C 
HETATM   16  C   UNK N   1      89.455  10.945  36.538  0.00  0.00     0.035 C 
HETATM   17  N   UNK N   1      89.055  10.699  35.329  0.00  0.00    -0.273 N 
HETATM   18  C   UNK N   1      90.529  10.114  37.188  0.00  0.00     0.081 C 
ATOM     19  HN  UNK N   1      89.426   9.960  34.731  1.00  0.00     0.193 HD
HETATM   20  C   UNK N   1      90.951  11.005  38.364  0.00  0.00     0.137 C 
BRANCH  17  21
HETATM   21  O   UNK N   1      88.040  11.592  34.960  0.00  0.00    -0.285 OA
HETATM   22  C   UNK N   1      87.019  10.861  34.290  0.00  0.00     0.237 C 
ENDBRANCH  17  21
BRANCH  18  23
HETATM   23  C   UNK N   1      90.001   8.738  37.607  0.00  0.00     0.278 C 
BRANCH  23  24
HETATM   24  N   UNK N   1      90.242   7.637  36.674  0.00  0.00     0.079 N 
HETATM   25  H   UNK N   1      91.027   7.065  36.990  0.00  0.00     0.312 HD
HETATM   26  H   UNK N   1      89.435   7.012  36.666  0.00  0.00     0.312 HD
ENDBRANCH  23  24
ENDBRANCH  18  23
ENDBRANCH   3  14
BRANCH  10  27
HETATM   27  C   UNK N   1      93.340  14.271  41.133  0.00  0.00     0.091 A 
HETATM   28  C   UNK N   1      94.652  14.629  41.786  0.00  0.00     0.028 A 
HETATM   29  C   UNK N   1      94.188  13.206  41.784  0.00  0.00     0.028 A 
ENDBRANCH  10  27
BRANCH  12  30
HETATM   30  C   UNK N   1      91.045  16.863  44.616  0.00  0.00     0.181 C 
HETATM   31  O   UNK N   1      91.445  18.011  44.650  0.00  0.00    -0.646 OA
BRANCH  30  32
HETATM   32  O   UNK N   1      90.632  16.269  45.755  0.00  0.00    -0.772 OA
HETATM   33  H   UNK N   1      89.950  15.638  45.439  0.00  0.00     0.167 HD
ENDBRANCH  30  32
ENDBRANCH  12  30
TORSDOF 7
ENDMDL
MODEL 3
REMARK VINA RESULT:      -7.3     16.848     18.970
REMARK  7 active torsions:
REMARK  status: ('A' for Active; 'I' for Inactive)
REMARK    1  A    between atoms: C_3  and  N_7 
REMARK    2  A    between atoms: N_13  and  C_19 
REMARK    3  A    between atoms: C_15  and  C_22 
REMARK    4  A    between atoms: C_17  and  C_23 
REMARK    5  A    between atoms: N_20  and  O_26 
REMARK    6  A    between atoms: C_22  and  N_27 
REMARK    7  A    between atoms: C_23  and  O_29 
ROOT
HETATM    1  F   UNK N   1      87.569  12.777  39.693  0.00  0.00    -0.202 F 
HETATM    2  C   UNK N   1      88.734  13.216  40.193  0.00  0.00     0.161 A 
HETATM    3  C   UNK N   1      89.961  12.716  39.737  0.00  0.00     0.144 A 
HETATM    4  C   UNK N   1      88.689  14.177  41.192  0.00  0.00     0.065 A 
HETATM    5  N   UNK N   1      91.117  13.178  40.277  0.00  0.00    -0.325 N 
ATOM      6  HN  UNK N   1      92.011  12.812  39.949  1.00  0.00     0.169 HD
HETATM    7  C   UNK N   1      89.887  14.637  41.730  0.00  0.00     0.062 A 
HETATM    8  C   UNK N   1      91.092  14.125  41.250  0.00  0.00     0.123 A 
HETATM    9  C   UNK N   1      89.885  15.656  42.803  0.00  0.00     0.204 A 
HETATM   10  N   UNK N   1      92.308  14.612  41.803  0.00  0.00    -0.337 N 
HETATM   11  O   UNK N   1      88.817  16.140  43.161  0.00  0.00    -0.286 OA
HETATM   12  C   UNK N   1      91.188  16.055  43.398  0.00  0.00     0.104 A 
HETATM   13  C   UNK N   1      92.286  15.502  42.856  0.00  0.00     0.115 A 
ENDROOT
BRANCH   3  14
HETATM   14  N   UNK N   1      90.076  11.777  38.746  0.00  0.00    -0.359 N 
HETATM   15  C   UNK N   1      91.390  11.467  38.188  0.00  0.00     0.179 C 
HETATM   16  C   UNK N   1      91.075  10.351  37.217  0.00  0.00     0.035 C 
HETATM   17  N   UNK N   1      91.923   9.659  36.522  0.00  0.00    -0.273 N 
HETATM   18  C   UNK N   1      89.593  10.108  37.104  0.00  0.00     0.081 C 
ATOM     19  HN  UNK N   1      91.673   8.913  35.873  1.00  0.00     0.193 HD
HETATM   20  C   UNK N   1      89.060  10.806  38.362  0.00  0.00     0.137 C 
BRANCH  17  21
HETATM   21  O   UNK N   1      93.232  10.085  36.788  0.00  0.00    -0.285 OA
HETATM   22  C   UNK N   1      93.964   8.985  37.317  0.00  0.00     0.237 C 
ENDBRANCH  17  21
BRANCH  18  23
HETATM   23  C   UNK N   1      89.029  10.670  35.794  0.00  0.00     0.278 C 
BRANCH  23  24
HETATM   24  N   UNK N   1      88.230  11.891  35.900  0.00  0.00     0.079 N 
HETATM   25  H   UNK N   1      88.473  12.405  36.749  0.00  0.00     0.312 HD
HETATM   26  H   UNK N   1      88.456  12.517  35.127  0.00  0.00     0.312 HD
ENDBRANCH  23  24
ENDBRANCH  18  23
ENDBRANCH   3  14
BRANCH  10  27
HETATM   27  C   UNK N   1      93.592  14.056  41.345  0.00  0.00     0.091 A 
HETATM   28  C   UNK N   1      94.898  14.448  41.991  0.00  0.00     0.028 A 
HETATM   29  C   UNK N   1      94.378  13.054  42.156  0.00  0.00     0.028 A 
ENDBRANCH  10  27
BRANCH  12  30
HETATM   30  C   UNK N   1      91.282  16.987  44.537  0.00  0.00     0.181 C 
HETATM   31  O   UNK N   1      90.768  16.867  45.632  0.00  0.00    -0.646 OA
BRANCH  30  32
HETATM   32  O   UNK N   1      92.041  18.071  44.274  0.00  0.00    -0.772 OA
HETATM   33  H   UNK N   1      92.921  17.683  44.079  0.00  0.00     0.167 HD
ENDBRANCH  30  32
ENDBRANCH  12  30
TORSDOF 7
ENDMDL
MODEL 4
REMARK VINA RESULT:      -7.3     14.803     16.950
REMARK  7 active torsions:
REMARK  status: ('A' for Active; 'I' for Inactive)
REMARK    1  A    between atoms: C_3  and  N_7 
REMARK    2  A    between atoms: N_13  and  C_19 
REMARK    3  A    between atoms: C_15  and  C_22 
REMARK    4  A    between atoms: C_17  and  C_23 
REMARK    5  A    between atoms: N_20  and  O_26 
REMARK    6  A    between atoms: C_22  and  N_27 
REMARK    7  A    between atoms: C_23  and  O_29 
ROOT
HETATM    1  F   UNK N   1      85.362  12.580  43.259  0.00  0.00    -0.202 F 
HETATM    2  C   UNK N   1      86.488  13.302  43.170  0.00  0.00     0.161 A 
HETATM    3  C   UNK N   1      86.787  14.312  44.095  0.00  0.00     0.144 A 
HETATM    4  C   UNK N   1      87.352  13.029  42.120  0.00  0.00     0.065 A 
HETATM    5  N   UNK N   1      87.932  15.028  43.963  0.00  0.00    -0.325 N 
ATOM      6  HN  UNK N   1      88.147  15.767  44.633  1.00  0.00     0.169 HD
HETATM    7  C   UNK N   1      88.521  13.775  42.004  0.00  0.00     0.062 A 
HETATM    8  C   UNK N   1      88.792  14.768  42.945  0.00  0.00     0.123 A 
HETATM    9  C   UNK N   1      89.467  13.520  40.895  0.00  0.00     0.204 A 
HETATM   10  N   UNK N   1      89.995  15.515  42.820  0.00  0.00    -0.337 N 
HETATM   11  O   UNK N   1      89.240  12.598  40.120  0.00  0.00    -0.286 OA
HETATM   12  C   UNK N   1      90.660  14.398  40.772  0.00  0.00     0.104 A 
HETATM   13  C   UNK N   1      90.826  15.320  41.736  0.00  0.00     0.115 A 
ENDROOT
BRANCH   3  14
HETATM   14  N   UNK N   1      85.984  14.625  45.161  0.00  0.00    -0.359 N 
HETATM   15  C   UNK N   1      85.210  15.863  45.148  0.00  0.00     0.179 C 
HETATM   16  C   UNK N   1      84.425  15.768  46.438  0.00  0.00     0.035 C 
HETATM   17  N   UNK N   1      83.513  16.588  46.858  0.00  0.00    -0.273 N 
HETATM   18  C   UNK N   1      84.834  14.572  47.256  0.00  0.00     0.081 C 
ATOM     19  HN  UNK N   1      83.004  16.494  47.737  1.00  0.00     0.193 HD
HETATM   20  C   UNK N   1      85.567  13.712  46.217  0.00  0.00     0.137 C 
BRANCH  17  21
HETATM   21  O   UNK N   1      83.327  17.624  45.933  0.00  0.00    -0.285 OA
HETATM   22  C   UNK N   1      83.577  18.863  46.588  0.00  0.00     0.237 C 
ENDBRANCH  17  21
BRANCH  18  23
HETATM   23  C   UNK N   1      85.703  14.978  48.452  0.00  0.00     0.278 C 
BRANCH  23  24
HETATM   24  N   UNK N   1      85.333  16.218  49.133  0.00  0.00     0.079 N 
HETATM   25  H   UNK N   1      85.273  16.068  50.142  0.00  0.00     0.312 HD
HETATM   26  H   UNK N   1      86.068  16.914  49.004  0.00  0.00     0.312 HD
ENDBRANCH  23  24
ENDBRANCH  18  23
ENDBRANCH   3  14
BRANCH  10  27
HETATM   27  C   UNK N   1      90.283  16.599  43.773  0.00  0.00     0.091 A 
HETATM   28  C   UNK N   1      91.017  16.340  45.066  0.00  0.00     0.028 A 
HETATM   29  C   UNK N   1      91.675  17.142  43.988  0.00  0.00     0.028 A 
ENDBRANCH  10  27
BRANCH  12  30
HETATM   30  C   UNK N   1      91.608  14.289  39.647  0.00  0.00     0.181 C 
HETATM   31  O   UNK N   1      92.777  13.959  39.698  0.00  0.00    -0.646 OA
BRANCH  30  32
HETATM   32  O   UNK N   1      91.055  14.598  38.456  0.00  0.00    -0.772 OA
HETATM   33  H   UNK N   1      90.811  13.720  38.091  0.00  0.00     0.167 HD
ENDBRANCH  30  32
ENDBRANCH  12  30
TORSDOF 7
ENDMDL
MODEL 5
REMARK VINA RESULT:      -7.2     17.418     20.392
REMARK  7 active torsions:
REMARK  status: ('A' for Active; 'I' for Inactive)
REMARK    1  A    between atoms: C_3  and  N_7 
REMARK    2  A    between atoms: N_13  and  C_19 
REMARK    3  A    between atoms: C_15  and  C_22 
REMARK    4  A    between atoms: C_17  and  C_23 
REMARK    5  A    between atoms: N_20  and  O_26 
REMARK    6  A    between atoms: C_22  and  N_27 
REMARK    7  A    between atoms: C_23  and  O_29 
ROOT
HETATM    1  F   UNK N   1      94.750  15.008  44.065  0.00  0.00    -0.202 F 
HETATM    2  C   UNK N   1      93.545  14.617  43.623  0.00  0.00     0.161 A 
HETATM    3  C   UNK N   1      93.388  13.994  42.378  0.00  0.00     0.144 A 
HETATM    4  C   UNK N   1      92.447  14.863  44.434  0.00  0.00     0.065 A 
HETATM    5  N   UNK N   1      92.150  13.625  41.962  0.00  0.00    -0.325 N 
ATOM      6  HN  UNK N   1      92.035  13.175  41.053  1.00  0.00     0.169 HD
HETATM    7  C   UNK N   1      91.187  14.475  43.988  0.00  0.00     0.062 A 
HETATM    8  C   UNK N   1      91.065  13.851  42.747  0.00  0.00     0.123 A 
HETATM    9  C   UNK N   1      89.988  14.723  44.818  0.00  0.00     0.204 A 
HETATM   10  N   UNK N   1      89.773  13.451  42.309  0.00  0.00    -0.337 N 
HETATM   11  O   UNK N   1      90.127  15.213  45.933  0.00  0.00    -0.286 OA
HETATM   12  C   UNK N   1      88.658  14.362  44.260  0.00  0.00     0.104 A 
HETATM   13  C   UNK N   1      88.657  13.761  43.058  0.00  0.00     0.115 A 
ENDROOT
BRANCH   3  14
HETATM   14  N   UNK N   1      94.431  13.712  41.535  0.00  0.00    -0.359 N 
HETATM   15  C   UNK N   1      94.628  12.346  41.055  0.00  0.00     0.179 C 
HETATM   16  C   UNK N   1      95.801  12.501  40.113  0.00  0.00     0.035 C 
HETATM   17  N   UNK N   1      96.317  11.585  39.354  0.00  0.00    -0.273 N 
HETATM   18  C   UNK N   1      96.368  13.895  40.147  0.00  0.00     0.081 C 
ATOM     19  HN  UNK N   1      97.113  11.724  38.731  1.00  0.00     0.193 HD
HETATM   20  C   UNK N   1      95.227  14.686  40.800  0.00  0.00     0.137 C 
BRANCH  17  21
HETATM   21  O   UNK N   1      95.629  10.375  39.515  0.00  0.00    -0.285 OA
HETATM   22  C   UNK N   1      95.206   9.924  38.233  0.00  0.00     0.237 C 
ENDBRANCH  17  21
BRANCH  18  23
HETATM   23  C   UNK N   1      97.688  13.947  40.925  0.00  0.00     0.278 C 
BRANCH  23  24
HETATM   24  N   UNK N   1      98.775  14.709  40.312  0.00  0.00     0.079 N 
HETATM   25  H   UNK N   1      98.579  14.881  39.324  0.00  0.00     0.312 HD
HETATM   26  H   UNK N   1      98.834  15.632  40.743  0.00  0.00     0.312 HD
ENDBRANCH  23  24
ENDBRANCH  18  23
ENDBRANCH   3  14
BRANCH  10  27
HETATM   27  C   UNK N   1      89.612  12.830  40.984  0.00  0.00     0.091 A 
HETATM   28  C   UNK N   1      88.263  12.740  40.312  0.00  0.00     0.028 A 
HETATM   29  C   UNK N   1      89.319  13.635  39.741  0.00  0.00     0.028 A 
ENDBRANCH  10  27
BRANCH  12  30
HETATM   30  C   UNK N   1      87.398  14.660  44.967  0.00  0.00     0.181 C 
HETATM   31  O   UNK N   1      87.087  14.321  46.092  0.00  0.00    -0.646 OA
BRANCH  30  32
HETATM   32  O   UNK N   1      86.539  15.398  44.234  0.00  0.00    -0.772 OA
HETATM   33  H   UNK N   1      86.781  16.319  44.471  0.00  0.00     0.167 HD
ENDBRANCH  30  32
ENDBRANCH  12  30
TORSDOF 7
ENDMDL
MODEL 6
REMARK VINA RESULT:      -7.2     10.303     14.139
REMARK  7 active torsions:
REMARK  status: ('A' for Active; 'I' for Inactive)
REMARK    1  A    between atoms: C_3  and  N_7 
REMARK    2  A    between atoms: N_13  and  C_19 
REMARK    3  A    between atoms: C_15  and  C_22 
REMARK    4  A    between atoms: C_17  and  C_23 
REMARK    5  A    between atoms: N_20  and  O_26 
REMARK    6  A    between atoms: C_22  and  N_27 
REMARK    7  A    between atoms: C_23  and  O_29 
ROOT
HETATM    1  F   UNK N   1      81.839  15.969  42.889  0.00  0.00    -0.202 F 
HETATM    2  C   UNK N   1      81.767  17.283  43.145  0.00  0.00     0.161 A 
HETATM    3  C   UNK N   1      82.202  17.817  44.365  0.00  0.00     0.144 A 
HETATM    4  C   UNK N   1      81.232  18.106  42.164  0.00  0.00     0.065 A 
HETATM    5  N   UNK N   1      82.100  19.152  44.590  0.00  0.00    -0.325 N 
ATOM      6  HN  UNK N   1      82.412  19.540  45.480  1.00  0.00     0.169 HD
HETATM    7  C   UNK N   1      81.139  19.471  42.415  0.00  0.00     0.062 A 
HETATM    8  C   UNK N   1      81.586  19.972  43.637  0.00  0.00     0.123 A 
HETATM    9  C   UNK N   1      80.569  20.384  41.400  0.00  0.00     0.204 A 
HETATM   10  N   UNK N   1      81.494  21.371  43.876  0.00  0.00    -0.337 N 
HETATM   11  O   UNK N   1      80.244  19.930  40.308  0.00  0.00    -0.286 OA
HETATM   12  C   UNK N   1      80.419  21.821  41.749  0.00  0.00     0.104 A 
HETATM   13  C   UNK N   1      80.888  22.196  42.952  0.00  0.00     0.115 A 
ENDROOT
BRANCH   3  14
HETATM   14  N   UNK N   1      82.749  17.063  45.370  0.00  0.00    -0.359 N 
HETATM   15  C   UNK N   1      82.056  15.868  45.842  0.00  0.00     0.179 C 
HETATM   16  C   UNK N   1      83.025  15.313  46.862  0.00  0.00     0.035 C 
HETATM   17  N   UNK N   1      82.917  14.197  47.514  0.00  0.00    -0.273 N 
HETATM   18  C   UNK N   1      84.194  16.236  47.085  0.00  0.00     0.081 C 
ATOM     19  HN  UNK N   1      83.591  13.854  48.198  1.00  0.00     0.193 HD
HETATM   20  C   UNK N   1      84.123  17.142  45.850  0.00  0.00     0.137 C 
BRANCH  17  21
HETATM   21  O   UNK N   1      81.740  13.530  47.146  0.00  0.00    -0.285 OA
HETATM   22  C   UNK N   1      82.054  12.163  46.907  0.00  0.00     0.237 C 
ENDBRANCH  17  21
BRANCH  18  23
HETATM   23  C   UNK N   1      84.072  16.986  48.417  0.00  0.00     0.278 C 
BRANCH  23  24
HETATM   24  N   UNK N   1      85.163  16.799  49.372  0.00  0.00     0.079 N 
HETATM   25  H   UNK N   1      85.956  17.397  49.132  0.00  0.00     0.312 HD
HETATM   26  H   UNK N   1      84.863  17.102  50.299  0.00  0.00     0.312 HD
ENDBRANCH  23  24
ENDBRANCH  18  23
ENDBRANCH   3  14
BRANCH  10  27
HETATM   27  C   UNK N   1      81.919  21.919  45.174  0.00  0.00     0.091 A 
HETATM   28  C   UNK N   1      83.368  22.218  45.470  0.00  0.00     0.028 A 
HETATM   29  C   UNK N   1      82.389  23.344  45.339  0.00  0.00     0.028 A 
ENDBRANCH  10  27
BRANCH  12  30
HETATM   30  C   UNK N   1      79.772  22.790  40.844  0.00  0.00     0.181 C 
HETATM   31  O   UNK N   1      80.106  23.941  40.638  0.00  0.00    -0.646 OA
BRANCH  30  32
HETATM   32  O   UNK N   1      78.702  22.282  40.199  0.00  0.00    -0.772 OA
HETATM   33  H   UNK N   1      78.396  21.572  40.804  0.00  0.00     0.167 HD
ENDBRANCH  30  32
ENDBRANCH  12  30
TORSDOF 7
ENDMDL
MODEL 7
REMARK VINA RESULT:      -7.2      1.499      2.364
REMARK  7 active torsions:
REMARK  status: ('A' for Active; 'I' for Inactive)
REMARK    1  A    between atoms: C_3  and  N_7 
REMARK    2  A    between atoms: N_13  and  C_19 
REMARK    3  A    between atoms: C_15  and  C_22 
REMARK    4  A    between atoms: C_17  and  C_23 
REMARK    5  A    between atoms: N_20  and  O_26 
REMARK    6  A    between atoms: C_22  and  N_27 
REMARK    7  A    between atoms: C_23  and  O_29 
ROOT
HETATM    1  F   UNK N   1      79.468  29.970  36.884  0.00  0.00    -0.202 F 
HETATM    2  C   UNK N   1      79.907  28.709  36.756  0.00  0.00     0.161 A 
HETATM    3  C   UNK N   1      79.089  27.698  36.234  0.00  0.00     0.144 A 
HETATM    4  C   UNK N   1      81.201  28.429  37.170  0.00  0.00     0.065 A 
HETATM    5  N   UNK N   1      79.567  26.432  36.132  0.00  0.00    -0.325 N 
ATOM      6  HN  UNK N   1      78.971  25.694  35.757  1.00  0.00     0.169 HD
HETATM    7  C   UNK N   1      81.671  27.124  37.055  0.00  0.00     0.062 A 
HETATM    8  C   UNK N   1      80.834  26.142  36.526  0.00  0.00     0.123 A 
HETATM    9  C   UNK N   1      83.042  26.780  37.491  0.00  0.00     0.204 A 
HETATM   10  N   UNK N   1      81.332  24.815  36.405  0.00  0.00    -0.337 N 
HETATM   11  O   UNK N   1      83.781  27.673  37.891  0.00  0.00    -0.286 OA
HETATM   12  C   UNK N   1      83.466  25.357  37.421  0.00  0.00     0.104 A 
HETATM   13  C   UNK N   1      82.582  24.495  36.890  0.00  0.00     0.115 A 
ENDROOT
BRANCH   3  14
HETATM   14  N   UNK N   1      77.808  27.910  35.796  0.00  0.00    -0.359 N 
HETATM   15  C   UNK N   1      76.680  27.581  36.664  0.00  0.00     0.179 C 
HETATM   16  C   UNK N   1      75.495  28.040  35.843  0.00  0.00     0.035 C 
HETATM   17  N   UNK N   1      74.251  28.050  36.207  0.00  0.00    -0.273 N 
HETATM   18  C   UNK N   1      75.909  28.496  34.469  0.00  0.00     0.081 C 
ATOM     19  HN  UNK N   1      73.475  28.365  35.625  1.00  0.00     0.193 HD
HETATM   20  C   UNK N   1      77.417  28.716  34.647  0.00  0.00     0.137 C 
BRANCH  17  21
HETATM   21  O   UNK N   1      74.123  27.563  37.516  0.00  0.00    -0.285 OA
HETATM   22  C   UNK N   1      73.188  26.490  37.507  0.00  0.00     0.237 C 
ENDBRANCH  17  21
BRANCH  18  23
HETATM   23  C   UNK N   1      75.552  27.457  33.400  0.00  0.00     0.278 C 
BRANCH  23  24
HETATM   24  N   UNK N   1      74.890  27.961  32.197  0.00  0.00     0.079 N 
HETATM   25  H   UNK N   1      74.848  28.982  32.212  0.00  0.00     0.312 HD
HETATM   26  H   UNK N   1      75.445  27.723  31.374  0.00  0.00     0.312 HD
ENDBRANCH  23  24
ENDBRANCH  18  23
ENDBRANCH   3  14
BRANCH  10  27
HETATM   27  C   UNK N   1      80.454  23.751  35.891  0.00  0.00     0.091 A 
HETATM   28  C   UNK N   1      80.792  22.292  36.074  0.00  0.00     0.028 A 
HETATM   29  C   UNK N   1      79.620  22.879  36.797  0.00  0.00     0.028 A 
ENDBRANCH  10  27
BRANCH  12  30
HETATM   30  C   UNK N   1      84.775  24.898  37.923  0.00  0.00     0.181 C 
HETATM   31  O   UNK N   1      85.421  23.944  37.533  0.00  0.00    -0.646 OA
BRANCH  30  32
HETATM   32  O   UNK N   1      85.260  25.665  38.921  0.00  0.00    -0.772 OA
HETATM   33  H   UNK N   1      85.058  25.136  39.724  0.00  0.00     0.167 HD
ENDBRANCH  30  32
ENDBRANCH  12  30
TORSDOF 7
ENDMDL
MODEL 8
REMARK VINA RESULT:      -6.9     28.420     29.845
REMARK  7 active torsions:
REMARK  status: ('A' for Active; 'I' for Inactive)
REMARK    1  A    between atoms: C_3  and  N_7 
REMARK    2  A    between atoms: N_13  and  C_19 
REMARK    3  A    between atoms: C_15  and  C_22 
REMARK    4  A    between atoms: C_17  and  C_23 
REMARK    5  A    between atoms: N_20  and  O_26 
REMARK    6  A    between atoms: C_22  and  N_27 
REMARK    7  A    between atoms: C_23  and  O_29 
ROOT
HETATM    1  F   UNK N   1      81.730   5.163  17.968  0.00  0.00    -0.202 F 
HETATM    2  C   UNK N   1      80.392   5.189  17.868  0.00  0.00     0.161 A 
HETATM    3  C   UNK N   1      79.595   4.190  18.443  0.00  0.00     0.144 A 
HETATM    4  C   UNK N   1      79.815   6.234  17.161  0.00  0.00     0.065 A 
HETATM    5  N   UNK N   1      78.246   4.246  18.309  0.00  0.00    -0.325 N 
ATOM      6  HN  UNK N   1      77.665   3.517  18.723  1.00  0.00     0.169 HD
HETATM    7  C   UNK N   1      78.430   6.272  17.038  0.00  0.00     0.062 A 
HETATM    8  C   UNK N   1      77.665   5.267  17.627  0.00  0.00     0.123 A 
HETATM    9  C   UNK N   1      77.774   7.366  16.287  0.00  0.00     0.204 A 
HETATM   10  N   UNK N   1      76.249   5.324  17.501  0.00  0.00    -0.337 N 
HETATM   11  O   UNK N   1      78.463   8.274  15.835  0.00  0.00    -0.286 OA
HETATM   12  C   UNK N   1      76.298   7.316  16.117  0.00  0.00     0.104 A 
HETATM   13  C   UNK N   1      75.659   6.305  16.731  0.00  0.00     0.115 A 
ENDROOT
BRANCH   3  14
HETATM   14  N   UNK N   1      80.099   3.138  19.162  0.00  0.00    -0.359 N 
HETATM   15  C   UNK N   1      79.348   2.608  20.297  0.00  0.00     0.179 C 
HETATM   16  C   UNK N   1      80.202   1.438  20.732  0.00  0.00     0.035 C 
HETATM   17  N   UNK N   1      79.926   0.574  21.658  0.00  0.00    -0.273 N 
HETATM   18  C   UNK N   1      81.493   1.369  19.961  0.00  0.00     0.081 C 
ATOM     19  HN  UNK N   1      80.528  -0.204  21.928  1.00  0.00     0.193 HD
HETATM   20  C   UNK N   1      81.190   2.263  18.752  0.00  0.00     0.137 C 
BRANCH  17  21
HETATM   21  O   UNK N   1      78.683   0.862  22.239  0.00  0.00    -0.285 OA
HETATM   22  C   UNK N   1      78.633   0.250  23.523  0.00  0.00     0.237 C 
ENDBRANCH  17  21
BRANCH  18  23
HETATM   23  C   UNK N   1      82.680   1.845  20.806  0.00  0.00     0.278 C 
BRANCH  23  24
HETATM   24  N   UNK N   1      83.838   2.354  20.073  0.00  0.00     0.079 N 
HETATM   25  H   UNK N   1      83.979   1.822  19.211  0.00  0.00     0.312 HD
HETATM   26  H   UNK N   1      83.662   3.314  19.775  0.00  0.00     0.312 HD
ENDBRANCH  23  24
ENDBRANCH  18  23
ENDBRANCH   3  14
BRANCH  10  27
HETATM   27  C   UNK N   1      75.421   4.252  18.075  0.00  0.00     0.091 A 
HETATM   28  C   UNK N   1      74.032   3.965  17.561  0.00  0.00     0.028 A 
HETATM   29  C   UNK N   1      75.127   2.969  17.336  0.00  0.00     0.028 A 
ENDBRANCH  10  27
BRANCH  12  30
HETATM   30  C   UNK N   1      75.563   8.303  15.303  0.00  0.00     0.181 C 
HETATM   31  O   UNK N   1      74.445   8.189  14.840  0.00  0.00    -0.646 OA
BRANCH  30  32
HETATM   32  O   UNK N   1      76.260   9.438  15.088  0.00  0.00    -0.772 OA
HETATM   33  H   UNK N   1      77.001   9.367  15.727  0.00  0.00     0.167 HD
ENDBRANCH  30  32
ENDBRANCH  12  30
TORSDOF 7
ENDMDL
MODEL 9
REMARK VINA RESULT:      -6.9     10.459     14.169
REMARK  7 active torsions:
REMARK  status: ('A' for Active; 'I' for Inactive)
REMARK    1  A    between atoms: C_3  and  N_7 
REMARK    2  A    between atoms: N_13  and  C_19 
REMARK    3  A    between atoms: C_15  and  C_22 
REMARK    4  A    between atoms: C_17  and  C_23 
REMARK    5  A    between atoms: N_20  and  O_26 
REMARK    6  A    between atoms: C_22  and  N_27 
REMARK    7  A    between atoms: C_23  and  O_29 
ROOT
HETATM    1  F   UNK N   1      84.476  20.440  47.609  0.00  0.00    -0.202 F 
HETATM    2  C   UNK N   1      83.556  20.322  46.640  0.00  0.00     0.161 A 
HETATM    3  C   UNK N   1      83.149  19.069  46.165  0.00  0.00     0.144 A 
HETATM    4  C   UNK N   1      83.023  21.487  46.108  0.00  0.00     0.065 A 
HETATM    5  N   UNK N   1      82.224  18.992  45.175  0.00  0.00    -0.325 N 
ATOM      6  HN  UNK N   1      81.931  18.080  44.824  1.00  0.00     0.169 HD
HETATM    7  C   UNK N   1      82.075  21.385  45.094  0.00  0.00     0.062 A 
HETATM    8  C   UNK N   1      81.687  20.123  44.648  0.00  0.00     0.123 A 
HETATM    9  C   UNK N   1      81.486  22.602  44.493  0.00  0.00     0.204 A 
HETATM   10  N   UNK N   1      80.709  20.034  43.619  0.00  0.00    -0.337 N 
HETATM   11  O   UNK N   1      81.793  23.699  44.948  0.00  0.00    -0.286 OA
HETATM   12  C   UNK N   1      80.537  22.440  43.360  0.00  0.00     0.104 A 
HETATM   13  C   UNK N   1      80.230  21.178  43.015  0.00  0.00     0.115 A 
ENDROOT
BRANCH   3  14
HETATM   14  N   UNK N   1      83.626  17.881  46.654  0.00  0.00    -0.359 N 
HETATM   15  C   UNK N   1      84.307  16.947  45.761  0.00  0.00     0.179 C 
HETATM   16  C   UNK N   1      84.730  15.845  46.706  0.00  0.00     0.035 C 
HETATM   17  N   UNK N   1      85.454  14.808  46.419  0.00  0.00    -0.273 N 
HETATM   18  C   UNK N   1      84.188  16.057  48.094  0.00  0.00     0.081 C 
ATOM     19  HN  UNK N   1      85.719  14.080  47.083  1.00  0.00     0.193 HD
HETATM   20  C   UNK N   1      83.802  17.542  48.061  0.00  0.00     0.137 C 
BRANCH  17  21
HETATM   21  O   UNK N   1      85.819  14.828  45.066  0.00  0.00    -0.285 OA
HETATM   22  C   UNK N   1      87.175  14.412  44.959  0.00  0.00     0.237 C 
ENDBRANCH  17  21
BRANCH  18  23
HETATM   23  C   UNK N   1      83.016  15.115  48.391  0.00  0.00     0.278 C 
BRANCH  23  24
HETATM   24  N   UNK N   1      82.219  15.421  49.578  0.00  0.00     0.079 N 
HETATM   25  H   UNK N   1      81.432  14.775  49.658  0.00  0.00     0.312 HD
HETATM   26  H   UNK N   1      82.782  15.271  50.417  0.00  0.00     0.312 HD
ENDBRANCH  23  24
ENDBRANCH  18  23
ENDBRANCH   3  14
BRANCH  10  27
HETATM   27  C   UNK N   1      80.315  18.715  43.099  0.00  0.00     0.091 A 
HETATM   28  C   UNK N   1      79.710  18.556  41.725  0.00  0.00     0.028 A 
HETATM   29  C   UNK N   1      81.078  18.013  42.001  0.00  0.00     0.028 A 
ENDBRANCH  10  27
BRANCH  12  30
HETATM   30  C   UNK N   1      79.974  23.592  42.631  0.00  0.00     0.181 C 
HETATM   31  O   UNK N   1      80.005  23.790  41.432  0.00  0.00    -0.646 OA
BRANCH  30  32
HETATM   32  O   UNK N   1      79.367  24.486  43.438  0.00  0.00    -0.772 OA
HETATM   33  H   UNK N   1      80.095  25.099  43.676  0.00  0.00     0.167 HD
ENDBRANCH  30  32
ENDBRANCH  12  30
TORSDOF 7
ENDMDL
