MODEL 1
REMARK VINA RESULT:      -6.9      0.000      0.000
REMARK  15 active torsions:
REMARK  status: ('A' for Active; 'I' for Inactive)
REMARK    1  A    between atoms: S_1  and  N_4 
REMARK    2  A    between atoms: N_4  and  C_6 
REMARK    3  A    between atoms: C_11  and  C_12 
REMARK    4  A    between atoms: C_12  and  O_13 
REMARK    5  A    between atoms: C_12  and  C_14 
REMARK    6  A    between atoms: C_14  and  C_15 
REMARK    7  A    between atoms: C_15  and  C_16 
REMARK    8  A    between atoms: C_16  and  N_17 
REMARK    9  A    between atoms: N_17  and  C_18 
REMARK   10  A    between atoms: N_17  and  C_19 
REMARK   11  A    between atoms: C_18  and  C_20 
REMARK   12  A    between atoms: C_20  and  C_22 
REMARK   13  A    between atoms: C_22  and  C_23 
REMARK   14  A    between atoms: C_23  and  C_24 
REMARK   15  A    between atoms: C_24  and  C_25 
ROOT
HETATM    1  C   UNK N   1      79.921  23.077  40.292  0.00  0.00     0.151 C 
ENDROOT
BRANCH   1   2
HETATM    2  C   UNK N   1      80.486  22.376  41.510  0.00  0.00    -0.029 A 
HETATM    3  C   UNK N   1      80.383  22.965  42.778  0.00  0.00     0.012 A 
HETATM    4  C   UNK N   1      80.892  22.317  43.907  0.00  0.00     0.031 A 
HETATM    5  C   UNK N   1      81.518  21.076  43.781  0.00  0.00     0.042 A 
HETATM    6  C   UNK N   1      81.614  20.474  42.529  0.00  0.00     0.031 A 
HETATM    7  C   UNK N   1      81.104  21.121  41.399  0.00  0.00     0.012 A 
BRANCH   5   8
HETATM    8  N   UNK N   1      82.028  20.448  44.953  0.00  0.00    -0.285 N 
HETATM    9  H   UNK N   1      81.454  19.727  45.389  0.00  0.00     0.178 HD
BRANCH   8  10
HETATM   10  S   UNK N   1      82.904  21.336  46.081  0.00  0.00     0.227 S 
HETATM   11  O   UNK N   1      83.927  22.025  45.322  0.00  0.00    -0.206 OA
HETATM   12  O   UNK N   1      82.004  22.059  46.950  0.00  0.00    -0.206 OA
HETATM   13  C   UNK N   1      83.714  20.063  47.029  0.00  0.00     0.186 C 
ENDBRANCH   8  10
ENDBRANCH   5   8
ENDBRANCH   1   2
BRANCH   1  14
HETATM   14  O   UNK N   1      79.748  24.465  40.573  0.00  0.00    -0.391 OA
HETATM   15  H   UNK N   1      80.570  24.782  40.985  0.00  0.00     0.210 HD
ENDBRANCH   1  14
BRANCH   1  16
HETATM   16  C   UNK N   1      80.824  22.913  39.063  0.00  0.00     0.038 C 
BRANCH  16  17
HETATM   17  C   UNK N   1      81.072  24.251  38.353  0.00  0.00     0.033 C 
BRANCH  17  18
HETATM   18  C   UNK N   1      82.035  24.074  37.170  0.00  0.00     0.272 C 
BRANCH  18  19
HETATM   19  N   UNK N   1      82.821  25.300  36.917  0.00  0.00     0.088 N 
BRANCH  19  20
HETATM   20  C   UNK N   1      82.697  26.240  38.050  0.00  0.00     0.272 C 
BRANCH  20  21
HETATM   21  C   UNK N   1      82.521  27.687  37.567  0.00  0.00     0.030 C 
BRANCH  21  22
HETATM   22  C   UNK N   1      83.437  28.641  38.341  0.00  0.00     0.002 C 
BRANCH  22  23
HETATM   23  C   UNK N   1      84.252  27.894  39.398  0.00  0.00     0.000 C 
BRANCH  23  24
HETATM   24  C   UNK N   1      85.268  28.818  40.073  0.00  0.00    -0.000 C 
BRANCH  24  25
HETATM   25  C   UNK N   1      84.650  29.549  41.264  0.00  0.00    -0.005 C 
HETATM   26  C   UNK N   1      84.467  31.031  40.976  0.00  0.00     0.005 C 
ENDBRANCH  24  25
ENDBRANCH  23  24
ENDBRANCH  22  23
ENDBRANCH  21  22
ENDBRANCH  20  21
ENDBRANCH  19  20
BRANCH  19  27
HETATM   27  C   UNK N   1      84.239  24.969  36.673  0.00  0.00     0.268 C 
HETATM   28  C   UNK N   1      84.970  24.608  37.963  0.00  0.00     0.037 C 
ENDBRANCH  19  27
ENDBRANCH  18  19
ENDBRANCH  17  18
ENDBRANCH  16  17
ENDBRANCH   1  16
TORSDOF 15
ENDMDL
MODEL 2
REMARK VINA RESULT:      -6.7      2.311      3.485
REMARK  15 active torsions:
REMARK  status: ('A' for Active; 'I' for Inactive)
REMARK    1  A    between atoms: S_1  and  N_4 
REMARK    2  A    between atoms: N_4  and  C_6 
REMARK    3  A    between atoms: C_11  and  C_12 
REMARK    4  A    between atoms: C_12  and  O_13 
REMARK    5  A    between atoms: C_12  and  C_14 
REMARK    6  A    between atoms: C_14  and  C_15 
REMARK    7  A    between atoms: C_15  and  C_16 
REMARK    8  A    between atoms: C_16  and  N_17 
REMARK    9  A    between atoms: N_17  and  C_18 
REMARK   10  A    between atoms: N_17  and  C_19 
REMARK   11  A    between atoms: C_18  and  C_20 
REMARK   12  A    between atoms: C_20  and  C_22 
REMARK   13  A    between atoms: C_22  and  C_23 
REMARK   14  A    between atoms: C_23  and  C_24 
REMARK   15  A    between atoms: C_24  and  C_25 
ROOT
HETATM    1  C   UNK N   1      79.228  23.959  42.809  0.00  0.00     0.151 C 
ENDROOT
BRANCH   1   2
HETATM    2  C   UNK N   1      80.368  23.278  43.538  0.00  0.00    -0.029 A 
HETATM    3  C   UNK N   1      80.771  21.985  43.174  0.00  0.00     0.012 A 
HETATM    4  C   UNK N   1      81.830  21.357  43.835  0.00  0.00     0.031 A 
HETATM    5  C   UNK N   1      82.496  22.011  44.873  0.00  0.00     0.042 A 
HETATM    6  C   UNK N   1      82.115  23.301  45.234  0.00  0.00     0.031 A 
HETATM    7  C   UNK N   1      81.056  23.930  44.573  0.00  0.00     0.012 A 
BRANCH   5   8
HETATM    8  N   UNK N   1      83.568  21.338  45.526  0.00  0.00    -0.285 N 
HETATM    9  H   UNK N   1      84.306  20.948  44.940  0.00  0.00     0.178 HD
BRANCH   8  10
HETATM   10  S   UNK N   1      83.278  20.404  46.894  0.00  0.00     0.227 S 
HETATM   11  O   UNK N   1      84.396  20.655  47.779  0.00  0.00    -0.206 OA
HETATM   12  O   UNK N   1      81.915  20.587  47.340  0.00  0.00    -0.206 OA
HETATM   13  C   UNK N   1      83.455  18.743  46.271  0.00  0.00     0.186 C 
ENDBRANCH   8  10
ENDBRANCH   5   8
ENDBRANCH   1   2
BRANCH   1  14
HETATM   14  O   UNK N   1      79.696  25.161  42.201  0.00  0.00    -0.391 OA
HETATM   15  H   UNK N   1      80.420  25.502  42.753  0.00  0.00     0.210 HD
ENDBRANCH   1  14
BRANCH   1  16
HETATM   16  C   UNK N   1      78.607  23.052  41.740  0.00  0.00     0.038 C 
BRANCH  16  17
HETATM   17  C   UNK N   1      78.860  23.584  40.322  0.00  0.00     0.033 C 
BRANCH  17  18
HETATM   18  C   UNK N   1      79.185  22.436  39.355  0.00  0.00     0.272 C 
BRANCH  18  19
HETATM   19  N   UNK N   1      80.328  22.766  38.479  0.00  0.00     0.088 N 
BRANCH  19  20
HETATM   20  C   UNK N   1      80.870  24.100  38.812  0.00  0.00     0.272 C 
BRANCH  20  21
HETATM   21  C   UNK N   1      81.092  24.950  37.552  0.00  0.00     0.030 C 
BRANCH  21  22
HETATM   22  C   UNK N   1      81.866  26.231  37.882  0.00  0.00     0.002 C 
BRANCH  22  23
HETATM   23  C   UNK N   1      83.278  26.194  37.295  0.00  0.00     0.000 C 
BRANCH  23  24
HETATM   24  C   UNK N   1      84.312  25.811  38.357  0.00  0.00    -0.000 C 
BRANCH  24  25
HETATM   25  C   UNK N   1      85.071  24.545  37.962  0.00  0.00    -0.005 C 
HETATM   26  C   UNK N   1      86.341  24.378  38.781  0.00  0.00     0.005 C 
ENDBRANCH  24  25
ENDBRANCH  23  24
ENDBRANCH  22  23
ENDBRANCH  21  22
ENDBRANCH  20  21
ENDBRANCH  19  20
BRANCH  19  27
HETATM   27  C   UNK N   1      81.382  21.739  38.589  0.00  0.00     0.268 C 
HETATM   28  C   UNK N   1      81.188  20.851  39.815  0.00  0.00     0.037 C 
ENDBRANCH  19  27
ENDBRANCH  18  19
ENDBRANCH  17  18
ENDBRANCH  16  17
ENDBRANCH   1  16
TORSDOF 15
ENDMDL
MODEL 3
REMARK VINA RESULT:      -6.6     11.459     14.139
REMARK  15 active torsions:
REMARK  status: ('A' for Active; 'I' for Inactive)
REMARK    1  A    between atoms: S_1  and  N_4 
REMARK    2  A    between atoms: N_4  and  C_6 
REMARK    3  A    between atoms: C_11  and  C_12 
REMARK    4  A    between atoms: C_12  and  O_13 
REMARK    5  A    between atoms: C_12  and  C_14 
REMARK    6  A    between atoms: C_14  and  C_15 
REMARK    7  A    between atoms: C_15  and  C_16 
REMARK    8  A    between atoms: C_16  and  N_17 
REMARK    9  A    between atoms: N_17  and  C_18 
REMARK   10  A    between atoms: N_17  and  C_19 
REMARK   11  A    between atoms: C_18  and  C_20 
REMARK   12  A    between atoms: C_20  and  C_22 
REMARK   13  A    between atoms: C_22  and  C_23 
REMARK   14  A    between atoms: C_23  and  C_24 
REMARK   15  A    between atoms: C_24  and  C_25 
ROOT
HETATM    1  C   UNK N   1      92.931  15.618  42.973  0.00  0.00     0.151 C 
ENDROOT
BRANCH   1   2
HETATM    2  C   UNK N   1      91.475  15.237  43.143  0.00  0.00    -0.029 A 
HETATM    3  C   UNK N   1      91.111  13.898  43.345  0.00  0.00     0.012 A 
HETATM    4  C   UNK N   1      89.770  13.543  43.514  0.00  0.00     0.031 A 
HETATM    5  C   UNK N   1      88.775  14.520  43.477  0.00  0.00     0.042 A 
HETATM    6  C   UNK N   1      89.125  15.856  43.293  0.00  0.00     0.031 A 
HETATM    7  C   UNK N   1      90.466  16.212  43.124  0.00  0.00     0.012 A 
BRANCH   5   8
HETATM    8  N   UNK N   1      87.419  14.120  43.650  0.00  0.00    -0.285 N 
HETATM    9  H   UNK N   1      86.742  14.441  42.959  0.00  0.00     0.178 HD
BRANCH   8  10
HETATM   10  S   UNK N   1      86.757  14.009  45.192  0.00  0.00     0.227 S 
HETATM   11  O   UNK N   1      85.995  12.778  45.198  0.00  0.00    -0.206 OA
HETATM   12  O   UNK N   1      87.772  14.264  46.188  0.00  0.00    -0.206 OA
HETATM   13  C   UNK N   1      85.590  15.356  45.208  0.00  0.00     0.186 C 
ENDBRANCH   8  10
ENDBRANCH   5   8
ENDBRANCH   1   2
BRANCH   1  14
HETATM   14  O   UNK N   1      93.404  16.252  44.160  0.00  0.00    -0.391 OA
HETATM   15  H   UNK N   1      92.991  17.132  44.202  0.00  0.00     0.210 HD
ENDBRANCH   1  14
BRANCH   1  16
HETATM   16  C   UNK N   1      93.810  14.401  42.658  0.00  0.00     0.038 C 
BRANCH  16  17
HETATM   17  C   UNK N   1      94.766  14.673  41.488  0.00  0.00     0.033 C 
BRANCH  17  18
HETATM   18  C   UNK N   1      94.794  13.486  40.515  0.00  0.00     0.272 C 
BRANCH  18  19
HETATM   19  N   UNK N   1      93.454  13.200  39.963  0.00  0.00     0.088 N 
BRANCH  19  20
HETATM   20  C   UNK N   1      93.297  13.817  38.629  0.00  0.00     0.272 C 
BRANCH  20  21
HETATM   21  C   UNK N   1      91.829  14.152  38.331  0.00  0.00     0.030 C 
BRANCH  21  22
HETATM   22  C   UNK N   1      91.181  14.887  39.508  0.00  0.00     0.002 C 
BRANCH  22  23
HETATM   23  C   UNK N   1      89.877  14.211  39.936  0.00  0.00     0.000 C 
BRANCH  23  24
HETATM   24  C   UNK N   1      89.680  12.875  39.216  0.00  0.00    -0.000 C 
BRANCH  24  25
HETATM   25  C   UNK N   1      88.325  12.255  39.557  0.00  0.00    -0.005 C 
HETATM   26  C   UNK N   1      87.358  13.295  40.101  0.00  0.00     0.005 C 
ENDBRANCH  24  25
ENDBRANCH  23  24
ENDBRANCH  22  23
ENDBRANCH  21  22
ENDBRANCH  20  21
ENDBRANCH  19  20
BRANCH  19  27
HETATM   27  C   UNK N   1      93.221  11.744  39.888  0.00  0.00     0.268 C 
HETATM   28  C   UNK N   1      92.397  11.236  41.068  0.00  0.00     0.037 C 
ENDBRANCH  19  27
ENDBRANCH  18  19
ENDBRANCH  17  18
ENDBRANCH  16  17
ENDBRANCH   1  16
TORSDOF 15
ENDMDL
MODEL 4
REMARK VINA RESULT:      -6.5     13.098     16.228
REMARK  15 active torsions:
REMARK  status: ('A' for Active; 'I' for Inactive)
REMARK    1  A    between atoms: S_1  and  N_4 
REMARK    2  A    between atoms: N_4  and  C_6 
REMARK    3  A    between atoms: C_11  and  C_12 
REMARK    4  A    between atoms: C_12  and  O_13 
REMARK    5  A    between atoms: C_12  and  C_14 
REMARK    6  A    between atoms: C_14  and  C_15 
REMARK    7  A    between atoms: C_15  and  C_16 
REMARK    8  A    between atoms: C_16  and  N_17 
REMARK    9  A    between atoms: N_17  and  C_18 
REMARK   10  A    between atoms: N_17  and  C_19 
REMARK   11  A    between atoms: C_18  and  C_20 
REMARK   12  A    between atoms: C_20  and  C_22 
REMARK   13  A    between atoms: C_22  and  C_23 
REMARK   14  A    between atoms: C_23  and  C_24 
REMARK   15  A    between atoms: C_24  and  C_25 
ROOT
HETATM    1  C   UNK N   1      95.820  13.777  40.341  0.00  0.00     0.151 C 
ENDROOT
BRANCH   1   2
HETATM    2  C   UNK N   1      94.756  13.227  39.413  0.00  0.00    -0.029 A 
HETATM    3  C   UNK N   1      94.892  11.947  38.857  0.00  0.00     0.012 A 
HETATM    4  C   UNK N   1      93.908  11.431  38.010  0.00  0.00     0.031 A 
HETATM    5  C   UNK N   1      92.779  12.191  37.701  0.00  0.00     0.042 A 
HETATM    6  C   UNK N   1      92.624  13.457  38.259  0.00  0.00     0.031 A 
HETATM    7  C   UNK N   1      93.608  13.974  39.107  0.00  0.00     0.012 A 
BRANCH   5   8
HETATM    8  N   UNK N   1      91.799  11.633  36.832  0.00  0.00    -0.285 N 
HETATM    9  H   UNK N   1      91.737  12.011  35.887  0.00  0.00     0.178 HD
BRANCH   8  10
HETATM   10  S   UNK N   1      90.299  11.164  37.432  0.00  0.00     0.227 S 
HETATM   11  O   UNK N   1      90.577  10.473  38.674  0.00  0.00    -0.206 OA
HETATM   12  O   UNK N   1      89.376  12.274  37.384  0.00  0.00    -0.206 OA
HETATM   13  C   UNK N   1      89.777   9.937  36.247  0.00  0.00     0.186 C 
ENDBRANCH   8  10
ENDBRANCH   5   8
ENDBRANCH   1   2
BRANCH   1  14
HETATM   14  O   UNK N   1      96.897  14.312  39.573  0.00  0.00    -0.391 OA
HETATM   15  H   UNK N   1      97.464  14.815  40.182  0.00  0.00     0.210 HD
ENDBRANCH   1  14
BRANCH   1  16
HETATM   16  C   UNK N   1      95.266  14.862  41.272  0.00  0.00     0.038 C 
BRANCH  16  17
HETATM   17  C   UNK N   1      94.844  14.289  42.632  0.00  0.00     0.033 C 
BRANCH  17  18
HETATM   18  C   UNK N   1      93.376  14.621  42.937  0.00  0.00     0.272 C 
BRANCH  18  19
HETATM   19  N   UNK N   1      93.219  15.217  44.280  0.00  0.00     0.088 N 
BRANCH  19  20
HETATM   20  C   UNK N   1      92.430  16.464  44.206  0.00  0.00     0.272 C 
BRANCH  20  21
HETATM   21  C   UNK N   1      90.960  16.226  44.581  0.00  0.00     0.030 C 
BRANCH  21  22
HETATM   22  C   UNK N   1      90.032  16.561  43.409  0.00  0.00     0.002 C 
BRANCH  22  23
HETATM   23  C   UNK N   1      89.693  15.311  42.594  0.00  0.00     0.000 C 
BRANCH  23  24
HETATM   24  C   UNK N   1      90.254  15.405  41.174  0.00  0.00    -0.000 C 
BRANCH  24  25
HETATM   25  C   UNK N   1      89.692  14.299  40.281  0.00  0.00    -0.005 C 
HETATM   26  C   UNK N   1      88.949  13.250  41.094  0.00  0.00     0.005 C 
ENDBRANCH  24  25
ENDBRANCH  23  24
ENDBRANCH  22  23
ENDBRANCH  21  22
ENDBRANCH  20  21
ENDBRANCH  19  20
BRANCH  19  27
HETATM   27  C   UNK N   1      92.582  14.258  45.204  0.00  0.00     0.268 C 
HETATM   28  C   UNK N   1      93.564  13.732  46.246  0.00  0.00     0.037 C 
ENDBRANCH  19  27
ENDBRANCH  18  19
ENDBRANCH  17  18
ENDBRANCH  16  17
ENDBRANCH   1  16
TORSDOF 15
ENDMDL
MODEL 5
REMARK VINA RESULT:      -6.4     12.343     15.359
REMARK  15 active torsions:
REMARK  status: ('A' for Active; 'I' for Inactive)
REMARK    1  A    between atoms: S_1  and  N_4 
REMARK    2  A    between atoms: N_4  and  C_6 
REMARK    3  A    between atoms: C_11  and  C_12 
REMARK    4  A    between atoms: C_12  and  O_13 
REMARK    5  A    between atoms: C_12  and  C_14 
REMARK    6  A    between atoms: C_14  and  C_15 
REMARK    7  A    between atoms: C_15  and  C_16 
REMARK    8  A    between atoms: C_16  and  N_17 
REMARK    9  A    between atoms: N_17  and  C_18 
REMARK   10  A    between atoms: N_17  and  C_19 
REMARK   11  A    between atoms: C_18  and  C_20 
REMARK   12  A    between atoms: C_20  and  C_22 
REMARK   13  A    between atoms: C_22  and  C_23 
REMARK   14  A    between atoms: C_23  and  C_24 
REMARK   15  A    between atoms: C_24  and  C_25 
ROOT
HETATM    1  C   UNK N   1      89.191  15.761  42.979  0.00  0.00     0.151 C 
ENDROOT
BRANCH   1   2
HETATM    2  C   UNK N   1      89.430  15.039  41.669  0.00  0.00    -0.029 A 
HETATM    3  C   UNK N   1      88.544  14.042  41.237  0.00  0.00     0.012 A 
HETATM    4  C   UNK N   1      88.754  13.380  40.024  0.00  0.00     0.031 A 
HETATM    5  C   UNK N   1      89.855  13.702  39.230  0.00  0.00     0.042 A 
HETATM    6  C   UNK N   1      90.735  14.701  39.641  0.00  0.00     0.031 A 
HETATM    7  C   UNK N   1      90.526  15.364  40.854  0.00  0.00     0.012 A 
BRANCH   5   8
HETATM    8  N   UNK N   1      90.038  13.005  38.002  0.00  0.00    -0.285 N 
HETATM    9  H   UNK N   1      89.202  12.733  37.486  0.00  0.00     0.178 HD
BRANCH   8  10
HETATM   10  S   UNK N   1      91.283  11.887  37.837  0.00  0.00     0.227 S 
HETATM   11  O   UNK N   1      92.362  12.600  37.187  0.00  0.00    -0.206 OA
HETATM   12  O   UNK N   1      91.493  11.190  39.085  0.00  0.00    -0.206 OA
HETATM   13  C   UNK N   1      90.614  10.738  36.649  0.00  0.00     0.186 C 
ENDBRANCH   8  10
ENDBRANCH   5   8
ENDBRANCH   1   2
BRANCH   1  14
HETATM   14  O   UNK N   1      88.675  14.847  43.944  0.00  0.00    -0.391 OA
HETATM   15  H   UNK N   1      88.098  14.223  43.472  0.00  0.00     0.210 HD
ENDBRANCH   1  14
BRANCH   1  16
HETATM   16  C   UNK N   1      90.472  16.408  43.520  0.00  0.00     0.038 C 
BRANCH  16  17
HETATM   17  C   UNK N   1      90.798  15.929  44.942  0.00  0.00     0.033 C 
BRANCH  17  18
HETATM   18  C   UNK N   1      92.183  15.267  44.995  0.00  0.00     0.272 C 
BRANCH  18  19
HETATM   19  N   UNK N   1      92.356  14.273  43.915  0.00  0.00     0.088 N 
BRANCH  19  20
HETATM   20  C   UNK N   1      93.764  14.228  43.469  0.00  0.00     0.272 C 
BRANCH  20  21
HETATM   21  C   UNK N   1      93.904  14.642  41.997  0.00  0.00     0.030 C 
BRANCH  21  22
HETATM   22  C   UNK N   1      93.685  13.445  41.066  0.00  0.00     0.002 C 
BRANCH  22  23
HETATM   23  C   UNK N   1      94.696  13.443  39.917  0.00  0.00     0.000 C 
BRANCH  23  24
HETATM   24  C   UNK N   1      95.915  14.307  40.246  0.00  0.00    -0.000 C 
BRANCH  24  25
HETATM   25  C   UNK N   1      97.185  13.463  40.344  0.00  0.00    -0.005 C 
HETATM   26  C   UNK N   1      98.282  14.194  41.102  0.00  0.00     0.005 C 
ENDBRANCH  24  25
ENDBRANCH  23  24
ENDBRANCH  22  23
ENDBRANCH  21  22
ENDBRANCH  20  21
ENDBRANCH  19  20
BRANCH  19  27
HETATM   27  C   UNK N   1      91.912  12.938  44.361  0.00  0.00     0.268 C 
HETATM   28  C   UNK N   1      91.017  12.260  43.328  0.00  0.00     0.037 C 
ENDBRANCH  19  27
ENDBRANCH  18  19
ENDBRANCH  17  18
ENDBRANCH  16  17
ENDBRANCH   1  16
TORSDOF 15
ENDMDL
MODEL 6
REMARK VINA RESULT:      -6.3     13.838     16.526
REMARK  15 active torsions:
REMARK  status: ('A' for Active; 'I' for Inactive)
REMARK    1  A    between atoms: S_1  and  N_4 
REMARK    2  A    between atoms: N_4  and  C_6 
REMARK    3  A    between atoms: C_11  and  C_12 
REMARK    4  A    between atoms: C_12  and  O_13 
REMARK    5  A    between atoms: C_12  and  C_14 
REMARK    6  A    between atoms: C_14  and  C_15 
REMARK    7  A    between atoms: C_15  and  C_16 
REMARK    8  A    between atoms: C_16  and  N_17 
REMARK    9  A    between atoms: N_17  and  C_18 
REMARK   10  A    between atoms: N_17  and  C_19 
REMARK   11  A    between atoms: C_18  and  C_20 
REMARK   12  A    between atoms: C_20  and  C_22 
REMARK   13  A    between atoms: C_22  and  C_23 
REMARK   14  A    between atoms: C_23  and  C_24 
REMARK   15  A    between atoms: C_24  and  C_25 
ROOT
HETATM    1  C   UNK N   1      93.484  13.608  38.844  0.00  0.00     0.151 C 
ENDROOT
BRANCH   1   2
HETATM    2  C   UNK N   1      94.830  13.374  39.499  0.00  0.00    -0.029 A 
HETATM    3  C   UNK N   1      95.425  12.104  39.463  0.00  0.00     0.012 A 
HETATM    4  C   UNK N   1      96.672  11.886  40.055  0.00  0.00     0.031 A 
HETATM    5  C   UNK N   1      97.336  12.931  40.698  0.00  0.00     0.042 A 
HETATM    6  C   UNK N   1      96.763  14.200  40.728  0.00  0.00     0.031 A 
HETATM    7  C   UNK N   1      95.516  14.420  40.135  0.00  0.00     0.012 A 
BRANCH   5   8
HETATM    8  N   UNK N   1      98.603  12.669  41.293  0.00  0.00    -0.285 N 
HETATM    9  H   UNK N   1      99.189  11.956  40.861  0.00  0.00     0.178 HD
BRANCH   8  10
HETATM   10  S   UNK N   1      98.782  12.717  42.965  0.00  0.00     0.227 S 
HETATM   11  O   UNK N   1      99.611  13.873  43.234  0.00  0.00    -0.206 OA
HETATM   12  O   UNK N   1      97.498  12.552  43.607  0.00  0.00    -0.206 OA
HETATM   13  C   UNK N   1      99.771  11.268  43.287  0.00  0.00     0.186 C 
ENDBRANCH   8  10
ENDBRANCH   5   8
ENDBRANCH   1   2
BRANCH   1  14
HETATM   14  O   UNK N   1      93.497  13.081  37.518  0.00  0.00    -0.391 OA
HETATM   15  H   UNK N   1      93.103  13.753  36.936  0.00  0.00     0.210 HD
ENDBRANCH   1  14
BRANCH   1  16
HETATM   16  C   UNK N   1      92.339  12.966  39.638  0.00  0.00     0.038 C 
BRANCH  16  17
HETATM   17  C   UNK N   1      91.889  13.852  40.808  0.00  0.00     0.033 C 
BRANCH  17  18
HETATM   18  C   UNK N   1      90.724  13.204  41.570  0.00  0.00     0.272 C 
BRANCH  18  19
HETATM   19  N   UNK N   1      89.512  14.048  41.536  0.00  0.00     0.088 N 
BRANCH  19  20
HETATM   20  C   UNK N   1      89.848  15.455  41.842  0.00  0.00     0.272 C 
BRANCH  20  21
HETATM   21  C   UNK N   1      89.461  15.828  43.280  0.00  0.00     0.030 C 
BRANCH  21  22
HETATM   22  C   UNK N   1      90.604  16.569  43.982  0.00  0.00     0.002 C 
BRANCH  22  23
HETATM   23  C   UNK N   1      91.023  15.854  45.268  0.00  0.00     0.000 C 
BRANCH  23  24
HETATM   24  C   UNK N   1      92.269  14.994  45.045  0.00  0.00    -0.000 C 
BRANCH  24  25
HETATM   25  C   UNK N   1      93.160  15.579  43.951  0.00  0.00    -0.005 C 
HETATM   26  C   UNK N   1      94.305  14.641  43.604  0.00  0.00     0.005 C 
ENDBRANCH  24  25
ENDBRANCH  23  24
ENDBRANCH  22  23
ENDBRANCH  21  22
ENDBRANCH  20  21
ENDBRANCH  19  20
BRANCH  19  27
HETATM   27  C   UNK N   1      88.846  13.951  40.222  0.00  0.00     0.268 C 
HETATM   28  C   UNK N   1      87.481  13.277  40.324  0.00  0.00     0.037 C 
ENDBRANCH  19  27
ENDBRANCH  18  19
ENDBRANCH  17  18
ENDBRANCH  16  17
ENDBRANCH   1  16
TORSDOF 15
ENDMDL
MODEL 7
REMARK VINA RESULT:      -6.3      1.153      2.111
REMARK  15 active torsions:
REMARK  status: ('A' for Active; 'I' for Inactive)
REMARK    1  A    between atoms: S_1  and  N_4 
REMARK    2  A    between atoms: N_4  and  C_6 
REMARK    3  A    between atoms: C_11  and  C_12 
REMARK    4  A    between atoms: C_12  and  O_13 
REMARK    5  A    between atoms: C_12  and  C_14 
REMARK    6  A    between atoms: C_14  and  C_15 
REMARK    7  A    between atoms: C_15  and  C_16 
REMARK    8  A    between atoms: C_16  and  N_17 
REMARK    9  A    between atoms: N_17  and  C_18 
REMARK   10  A    between atoms: N_17  and  C_19 
REMARK   11  A    between atoms: C_18  and  C_20 
REMARK   12  A    between atoms: C_20  and  C_22 
REMARK   13  A    between atoms: C_22  and  C_23 
REMARK   14  A    between atoms: C_23  and  C_24 
REMARK   15  A    between atoms: C_24  and  C_25 
ROOT
HETATM    1  C   UNK N   1      79.971  22.627  40.209  0.00  0.00     0.151 C 
ENDROOT
BRANCH   1   2
HETATM    2  C   UNK N   1      80.524  22.081  41.509  0.00  0.00    -0.029 A 
HETATM    3  C   UNK N   1      81.213  20.861  41.530  0.00  0.00     0.012 A 
HETATM    4  C   UNK N   1      81.736  20.358  42.725  0.00  0.00     0.031 A 
HETATM    5  C   UNK N   1      81.569  21.066  43.916  0.00  0.00     0.042 A 
HETATM    6  C   UNK N   1      80.899  22.287  43.907  0.00  0.00     0.031 A 
HETATM    7  C   UNK N   1      80.377  22.791  42.712  0.00  0.00     0.012 A 
BRANCH   5   8
HETATM    8  N   UNK N   1      82.112  20.521  45.115  0.00  0.00    -0.285 N 
HETATM    9  H   UNK N   1      81.554  19.828  45.612  0.00  0.00     0.178 HD
BRANCH   8  10
HETATM   10  S   UNK N   1      83.008  21.489  46.158  0.00  0.00     0.227 S 
HETATM   11  O   UNK N   1      84.082  22.035  45.354  0.00  0.00    -0.206 OA
HETATM   12  O   UNK N   1      82.129  22.351  46.915  0.00  0.00    -0.206 OA
HETATM   13  C   UNK N   1      83.729  20.295  47.268  0.00  0.00     0.186 C 
ENDBRANCH   8  10
ENDBRANCH   5   8
ENDBRANCH   1   2
BRANCH   1  14
HETATM   14  O   UNK N   1      80.144  24.043  40.170  0.00  0.00    -0.391 OA
HETATM   15  H   UNK N   1      79.286  24.445  40.388  0.00  0.00     0.210 HD
ENDBRANCH   1  14
BRANCH   1  16
HETATM   16  C   UNK N   1      80.648  21.995  38.987  0.00  0.00     0.038 C 
BRANCH  16  17
HETATM   17  C   UNK N   1      81.670  22.944  38.345  0.00  0.00     0.033 C 
BRANCH  17  18
HETATM   18  C   UNK N   1      81.233  23.345  36.929  0.00  0.00     0.272 C 
BRANCH  18  19
HETATM   19  N   UNK N   1      81.166  24.814  36.773  0.00  0.00     0.088 N 
BRANCH  19  20
HETATM   20  C   UNK N   1      82.470  25.350  36.333  0.00  0.00     0.272 C 
BRANCH  20  21
HETATM   21  C   UNK N   1      83.086  26.276  37.392  0.00  0.00     0.030 C 
BRANCH  21  22
HETATM   22  C   UNK N   1      84.260  25.595  38.103  0.00  0.00     0.002 C 
BRANCH  22  23
HETATM   23  C   UNK N   1      84.861  26.502  39.179  0.00  0.00     0.000 C 
BRANCH  23  24
HETATM   24  C   UNK N   1      84.091  27.819  39.290  0.00  0.00    -0.000 C 
BRANCH  24  25
HETATM   25  C   UNK N   1      84.455  28.569  40.571  0.00  0.00    -0.005 C 
HETATM   26  C   UNK N   1      85.257  29.826  40.272  0.00  0.00     0.005 C 
ENDBRANCH  24  25
ENDBRANCH  23  24
ENDBRANCH  22  23
ENDBRANCH  21  22
ENDBRANCH  20  21
ENDBRANCH  19  20
BRANCH  19  27
HETATM   27  C   UNK N   1      80.105  25.188  35.817  0.00  0.00     0.268 C 
HETATM   28  C   UNK N   1      78.999  24.139  35.753  0.00  0.00     0.037 C 
ENDBRANCH  19  27
ENDBRANCH  18  19
ENDBRANCH  17  18
ENDBRANCH  16  17
ENDBRANCH   1  16
TORSDOF 15
ENDMDL
MODEL 8
REMARK VINA RESULT:      -6.3     12.150     14.486
REMARK  15 active torsions:
REMARK  status: ('A' for Active; 'I' for Inactive)
REMARK    1  A    between atoms: S_1  and  N_4 
REMARK    2  A    between atoms: N_4  and  C_6 
REMARK    3  A    between atoms: C_11  and  C_12 
REMARK    4  A    between atoms: C_12  and  O_13 
REMARK    5  A    between atoms: C_12  and  C_14 
REMARK    6  A    between atoms: C_14  and  C_15 
REMARK    7  A    between atoms: C_15  and  C_16 
REMARK    8  A    between atoms: C_16  and  N_17 
REMARK    9  A    between atoms: N_17  and  C_18 
REMARK   10  A    between atoms: N_17  and  C_19 
REMARK   11  A    between atoms: C_18  and  C_20 
REMARK   12  A    between atoms: C_20  and  C_22 
REMARK   13  A    between atoms: C_22  and  C_23 
REMARK   14  A    between atoms: C_23  and  C_24 
REMARK   15  A    between atoms: C_24  and  C_25 
ROOT
HETATM    1  C   UNK N   1      87.924  13.674  40.679  0.00  0.00     0.151 C 
ENDROOT
BRANCH   1   2
HETATM    2  C   UNK N   1      89.432  13.620  40.552  0.00  0.00    -0.029 A 
HETATM    3  C   UNK N   1      90.175  12.702  41.307  0.00  0.00     0.012 A 
HETATM    4  C   UNK N   1      91.566  12.640  41.185  0.00  0.00     0.031 A 
HETATM    5  C   UNK N   1      92.233  13.501  40.313  0.00  0.00     0.042 A 
HETATM    6  C   UNK N   1      91.506  14.408  39.546  0.00  0.00     0.031 A 
HETATM    7  C   UNK N   1      90.114  14.470  39.667  0.00  0.00     0.012 A 
BRANCH   5   8
HETATM    8  N   UNK N   1      93.651  13.411  40.218  0.00  0.00    -0.285 N 
HETATM    9  H   UNK N   1      94.191  14.251  40.425  0.00  0.00     0.178 HD
BRANCH   8  10
HETATM   10  S   UNK N   1      94.365  12.471  39.020  0.00  0.00     0.227 S 
HETATM   11  O   UNK N   1      93.715  12.858  37.785  0.00  0.00    -0.206 OA
HETATM   12  O   UNK N   1      95.803  12.507  39.151  0.00  0.00    -0.206 OA
HETATM   13  C   UNK N   1      93.796  10.832  39.428  0.00  0.00     0.186 C 
ENDBRANCH   8  10
ENDBRANCH   5   8
ENDBRANCH   1   2
BRANCH   1  14
HETATM   14  O   UNK N   1      87.334  13.727  39.381  0.00  0.00    -0.391 OA
HETATM   15  H   UNK N   1      86.430  14.067  39.487  0.00  0.00     0.210 HD
ENDBRANCH   1  14
BRANCH   1  16
HETATM   16  C   UNK N   1      87.368  12.467  41.444  0.00  0.00     0.038 C 
BRANCH  16  17
HETATM   17  C   UNK N   1      86.651  12.888  42.734  0.00  0.00     0.033 C 
BRANCH  17  18
HETATM   18  C   UNK N   1      87.513  12.582  43.967  0.00  0.00     0.272 C 
BRANCH  18  19
HETATM   19  N   UNK N   1      87.738  13.789  44.790  0.00  0.00     0.088 N 
BRANCH  19  20
HETATM   20  C   UNK N   1      89.039  14.408  44.461  0.00  0.00     0.272 C 
BRANCH  20  21
HETATM   21  C   UNK N   1      88.862  15.691  43.636  0.00  0.00     0.030 C 
BRANCH  21  22
HETATM   22  C   UNK N   1      90.195  16.150  43.039  0.00  0.00     0.002 C 
BRANCH  22  23
HETATM   23  C   UNK N   1      91.005  16.966  44.048  0.00  0.00     0.000 C 
BRANCH  23  24
HETATM   24  C   UNK N   1      92.495  16.627  43.971  0.00  0.00    -0.000 C 
BRANCH  24  25
HETATM   25  C   UNK N   1      92.712  15.147  43.660  0.00  0.00    -0.005 C 
HETATM   26  C   UNK N   1      94.192  14.808  43.571  0.00  0.00     0.005 C 
ENDBRANCH  24  25
ENDBRANCH  23  24
ENDBRANCH  22  23
ENDBRANCH  21  22
ENDBRANCH  20  21
ENDBRANCH  19  20
BRANCH  19  27
HETATM   27  C   UNK N   1      86.642  14.760  44.600  0.00  0.00     0.268 C 
HETATM   28  C   UNK N   1      85.734  14.841  45.824  0.00  0.00     0.037 C 
ENDBRANCH  19  27
ENDBRANCH  18  19
ENDBRANCH  17  18
ENDBRANCH  16  17
ENDBRANCH   1  16
TORSDOF 15
ENDMDL
MODEL 9
REMARK VINA RESULT:      -6.3      2.874      3.635
REMARK  15 active torsions:
REMARK  status: ('A' for Active; 'I' for Inactive)
REMARK    1  A    between atoms: S_1  and  N_4 
REMARK    2  A    between atoms: N_4  and  C_6 
REMARK    3  A    between atoms: C_11  and  C_12 
REMARK    4  A    between atoms: C_12  and  O_13 
REMARK    5  A    between atoms: C_12  and  C_14 
REMARK    6  A    between atoms: C_14  and  C_15 
REMARK    7  A    between atoms: C_15  and  C_16 
REMARK    8  A    between atoms: C_16  and  N_17 
REMARK    9  A    between atoms: N_17  and  C_18 
REMARK   10  A    between atoms: N_17  and  C_19 
REMARK   11  A    between atoms: C_18  and  C_20 
REMARK   12  A    between atoms: C_20  and  C_22 
REMARK   13  A    between atoms: C_22  and  C_23 
REMARK   14  A    between atoms: C_23  and  C_24 
REMARK   15  A    between atoms: C_24  and  C_25 
ROOT
HETATM    1  C   UNK N   1      78.975  23.783  41.528  0.00  0.00     0.151 C 
ENDROOT
BRANCH   1   2
HETATM    2  C   UNK N   1      79.841  22.562  41.757  0.00  0.00    -0.029 A 
HETATM    3  C   UNK N   1      80.536  22.402  42.964  0.00  0.00     0.012 A 
HETATM    4  C   UNK N   1      81.328  21.272  43.185  0.00  0.00     0.031 A 
HETATM    5  C   UNK N   1      81.440  20.290  42.200  0.00  0.00     0.042 A 
HETATM    6  C   UNK N   1      80.743  20.430  41.002  0.00  0.00     0.031 A 
HETATM    7  C   UNK N   1      79.950  21.560  40.781  0.00  0.00     0.012 A 
BRANCH   5   8
HETATM    8  N   UNK N   1      82.259  19.154  42.460  0.00  0.00    -0.285 N 
HETATM    9  H   UNK N   1      82.924  18.877  41.738  0.00  0.00     0.178 HD
BRANCH   8  10
HETATM   10  S   UNK N   1      81.638  17.834  43.297  0.00  0.00     0.227 S 
HETATM   11  O   UNK N   1      80.200  18.000  43.272  0.00  0.00    -0.206 OA
HETATM   12  O   UNK N   1      82.258  16.614  42.831  0.00  0.00    -0.206 OA
HETATM   13  C   UNK N   1      82.180  18.147  44.966  0.00  0.00     0.186 C 
ENDBRANCH   8  10
ENDBRANCH   5   8
ENDBRANCH   1   2
BRANCH   1  14
HETATM   14  O   UNK N   1      79.647  24.946  42.009  0.00  0.00    -0.391 OA
HETATM   15  H   UNK N   1      80.490  25.012  41.530  0.00  0.00     0.210 HD
ENDBRANCH   1  14
BRANCH   1  16
HETATM   16  C   UNK N   1      78.625  23.970  40.046  0.00  0.00     0.038 C 
BRANCH  16  17
HETATM   17  C   UNK N   1      79.138  25.311  39.503  0.00  0.00     0.033 C 
BRANCH  17  18
HETATM   18  C   UNK N   1      80.324  25.100  38.550  0.00  0.00     0.272 C 
BRANCH  18  19
HETATM   19  N   UNK N   1      80.006  25.543  37.176  0.00  0.00     0.088 N 
BRANCH  19  20
HETATM   20  C   UNK N   1      80.919  26.626  36.754  0.00  0.00     0.272 C 
BRANCH  20  21
HETATM   21  C   UNK N   1      81.880  27.025  37.883  0.00  0.00     0.030 C 
BRANCH  21  22
HETATM   22  C   UNK N   1      83.338  26.799  37.470  0.00  0.00     0.002 C 
BRANCH  22  23
HETATM   23  C   UNK N   1      83.494  25.510  36.662  0.00  0.00     0.000 C 
BRANCH  23  24
HETATM   24  C   UNK N   1      84.853  24.855  36.914  0.00  0.00    -0.000 C 
BRANCH  24  25
HETATM   25  C   UNK N   1      85.196  24.843  38.403  0.00  0.00    -0.005 C 
HETATM   26  C   UNK N   1      86.339  23.886  38.704  0.00  0.00     0.005 C 
ENDBRANCH  24  25
ENDBRANCH  23  24
ENDBRANCH  22  23
ENDBRANCH  21  22
ENDBRANCH  20  21
ENDBRANCH  19  20
BRANCH  19  27
HETATM   27  C   UNK N   1      80.080  24.409  36.233  0.00  0.00     0.268 C 
HETATM   28  C   UNK N   1      80.655  23.158  36.890  0.00  0.00     0.037 C 
ENDBRANCH  19  27
ENDBRANCH  18  19
ENDBRANCH  17  18
ENDBRANCH  16  17
ENDBRANCH   1  16
TORSDOF 15
ENDMDL
