MODEL 1
REMARK VINA RESULT:      -6.7      0.000      0.000
REMARK  9 active torsions:
REMARK  status: ('A' for Active; 'I' for Inactive)
REMARK    1  A    between atoms: S_1  and  C_2 
REMARK    2  A    between atoms: S_1  and  C_3 
REMARK    3  A    between atoms: C_3  and  C_6 
REMARK    4  A    between atoms: C_4  and  C_8 
REMARK    5  A    between atoms: C_6  and  N_10 
REMARK    6  A    between atoms: C_8  and  O_14 
REMARK    7  A    between atoms: N_10  and  C_16 
REMARK    8  A    between atoms: C_15  and  C_18 
REMARK    9  A    between atoms: C_18  and  O_20 
ROOT
HETATM    1  C   UNK N   1      91.676  14.943  42.050  0.00  0.00     0.008 C 
HETATM    2  C   UNK N   1      91.838  14.109  41.010  0.00  0.00     0.105 C 
HETATM    3  C   UNK N   1      92.939  15.024  42.874  0.00  0.00     0.069 C 
HETATM    4  N   UNK N   1      93.096  13.563  41.009  0.00  0.00    -0.207 NA
HETATM    5  C   UNK N   1      93.843  13.981  42.209  0.00  0.00     0.091 A 
HETATM    6  C   UNK N   1      94.067  13.885  40.112  0.00  0.00     0.213 A 
HETATM    7  C   UNK N   1      95.013  14.348  41.243  0.00  0.00     0.120 A 
HETATM    8  O   UNK N   1      94.084  13.918  38.905  0.00  0.00    -0.279 OA
ENDROOT
BRANCH   1   9
HETATM    9  S   UNK N   1      90.268  15.826  42.483  0.00  0.00    -0.131 SA
BRANCH   9  10
HETATM   10  C   UNK N   1      90.516  16.027  44.278  0.00  0.00     0.099 C 
BRANCH  10  11
HETATM   11  C   UNK N   1      91.053  17.411  44.643  0.00  0.00     0.130 C 
BRANCH  11  12
HETATM   12  N   UNK N   1      90.559  18.378  43.647  0.00  0.00    -0.386 N 
ATOM     13  HN  UNK N   1      89.789  18.189  43.005  1.00  0.00     0.160 HD
BRANCH  12  14
HETATM   14  C   UNK N   1      91.209  19.485  43.677  0.00  0.00     0.168 C 
HETATM   15  N   UNK N   1      91.335  20.230  44.794  0.00  0.00    -0.396 N 
HETATM   16  H   UNK N   1      91.841  21.104  44.811  0.00  0.00     0.156 HD
HETATM   17  H   UNK N   1      90.889  19.904  45.641  0.00  0.00     0.156 HD
ENDBRANCH  12  14
ENDBRANCH  11  12
ENDBRANCH  10  11
ENDBRANCH   9  10
ENDBRANCH   1   9
BRANCH   2  18
HETATM   18  C   UNK N   1      90.883  13.820  39.916  0.00  0.00     0.189 C 
HETATM   19  O   UNK N   1      90.018  12.962  39.899  0.00  0.00    -0.645 OA
BRANCH  18  20
HETATM   20  O   UNK N   1      91.064  14.646  38.867  0.00  0.00    -0.772 OA
HETATM   21  H   UNK N   1      91.548  14.100  38.216  0.00  0.00     0.167 HD
ENDBRANCH  18  20
ENDBRANCH   2  18
BRANCH   7  22
HETATM   22  C   UNK N   1      96.281  13.533  41.407  0.00  0.00     0.128 C 
HETATM   23  C   UNK N   1      97.288  13.844  40.308  0.00  0.00     0.040 C 
BRANCH  22  24
HETATM   24  O   UNK N   1      96.847  13.843  42.681  0.00  0.00    -0.395 OA
HETATM   25  H   UNK N   1      96.410  13.297  43.359  0.00  0.00     0.210 HD
ENDBRANCH  22  24
ENDBRANCH   7  22
TORSDOF 9
ENDMDL
MODEL 2
REMARK VINA RESULT:      -6.4      1.961      3.260
REMARK  9 active torsions:
REMARK  status: ('A' for Active; 'I' for Inactive)
REMARK    1  A    between atoms: S_1  and  C_2 
REMARK    2  A    between atoms: S_1  and  C_3 
REMARK    3  A    between atoms: C_3  and  C_6 
REMARK    4  A    between atoms: C_4  and  C_8 
REMARK    5  A    between atoms: C_6  and  N_10 
REMARK    6  A    between atoms: C_8  and  O_14 
REMARK    7  A    between atoms: N_10  and  C_16 
REMARK    8  A    between atoms: C_15  and  C_18 
REMARK    9  A    between atoms: C_18  and  O_20 
ROOT
HETATM    1  C   UNK N   1      92.108  13.704  42.619  0.00  0.00     0.008 C 
HETATM    2  C   UNK N   1      93.307  14.280  42.802  0.00  0.00     0.105 C 
HETATM    3  C   UNK N   1      92.066  12.960  41.305  0.00  0.00     0.069 C 
HETATM    4  N   UNK N   1      94.136  14.041  41.736  0.00  0.00    -0.207 NA
HETATM    5  C   UNK N   1      93.417  13.312  40.675  0.00  0.00     0.091 A 
HETATM    6  C   UNK N   1      95.214  13.212  41.779  0.00  0.00     0.213 A 
HETATM    7  C   UNK N   1      94.634  12.334  40.648  0.00  0.00     0.120 A 
HETATM    8  O   UNK N   1      96.161  13.142  42.526  0.00  0.00    -0.279 OA
ENDROOT
BRANCH   1   9
HETATM    9  S   UNK N   1      90.743  13.757  43.660  0.00  0.00    -0.131 SA
BRANCH   9  10
HETATM   10  C   UNK N   1      89.918  15.277  43.081  0.00  0.00     0.099 C 
BRANCH  10  11
HETATM   11  C   UNK N   1      90.138  16.458  44.026  0.00  0.00     0.130 C 
BRANCH  11  12
HETATM   12  N   UNK N   1      90.652  17.593  43.239  0.00  0.00    -0.386 N 
ATOM     13  HN  UNK N   1      90.796  17.565  42.230  1.00  0.00     0.160 HD
BRANCH  12  14
HETATM   14  C   UNK N   1      90.899  18.620  43.969  0.00  0.00     0.168 C 
HETATM   15  N   UNK N   1      90.464  19.859  43.660  0.00  0.00    -0.396 N 
HETATM   16  H   UNK N   1      90.667  20.666  44.233  0.00  0.00     0.156 HD
HETATM   17  H   UNK N   1      89.928  19.982  42.812  0.00  0.00     0.156 HD
ENDBRANCH  12  14
ENDBRANCH  11  12
ENDBRANCH  10  11
ENDBRANCH   9  10
ENDBRANCH   1   9
BRANCH   2  18
HETATM   18  C   UNK N   1      93.791  15.019  43.990  0.00  0.00     0.189 C 
HETATM   19  O   UNK N   1      94.347  14.557  44.971  0.00  0.00    -0.645 OA
BRANCH  18  20
HETATM   20  O   UNK N   1      93.549  16.340  43.886  0.00  0.00    -0.772 OA
HETATM   21  H   UNK N   1      93.125  16.572  44.736  0.00  0.00     0.167 HD
ENDBRANCH  18  20
ENDBRANCH   2  18
BRANCH   7  22
HETATM   22  C   UNK N   1      95.434  12.317  39.359  0.00  0.00     0.128 C 
HETATM   23  C   UNK N   1      96.105  10.968  39.140  0.00  0.00     0.040 C 
BRANCH  22  24
HETATM   24  O   UNK N   1      94.543  12.594  38.278  0.00  0.00    -0.395 OA
HETATM   25  H   UNK N   1      93.888  11.876  38.221  0.00  0.00     0.210 HD
ENDBRANCH  22  24
ENDBRANCH   7  22
TORSDOF 9
ENDMDL
MODEL 3
REMARK VINA RESULT:      -6.3      2.047      4.470
REMARK  9 active torsions:
REMARK  status: ('A' for Active; 'I' for Inactive)
REMARK    1  A    between atoms: S_1  and  C_2 
REMARK    2  A    between atoms: S_1  and  C_3 
REMARK    3  A    between atoms: C_3  and  C_6 
REMARK    4  A    between atoms: C_4  and  C_8 
REMARK    5  A    between atoms: C_6  and  N_10 
REMARK    6  A    between atoms: C_8  and  O_14 
REMARK    7  A    between atoms: N_10  and  C_16 
REMARK    8  A    between atoms: C_15  and  C_18 
REMARK    9  A    between atoms: C_18  and  O_20 
ROOT
HETATM    1  C   UNK N   1      92.109  14.341  41.130  0.00  0.00     0.008 C 
HETATM    2  C   UNK N   1      92.875  13.720  40.218  0.00  0.00     0.105 C 
HETATM    3  C   UNK N   1      90.671  14.399  40.671  0.00  0.00     0.069 C 
HETATM    4  N   UNK N   1      92.133  13.337  39.131  0.00  0.00    -0.207 NA
HETATM    5  C   UNK N   1      90.745  13.817  39.255  0.00  0.00     0.091 A 
HETATM    6  C   UNK N   1      91.816  12.046  38.840  0.00  0.00     0.213 A 
HETATM    7  C   UNK N   1      90.305  12.362  38.900  0.00  0.00     0.120 A 
HETATM    8  O   UNK N   1      92.485  11.046  38.732  0.00  0.00    -0.279 OA
ENDROOT
BRANCH   1   9
HETATM    9  S   UNK N   1      92.597  15.024  42.628  0.00  0.00    -0.131 SA
BRANCH   9  10
HETATM   10  C   UNK N   1      90.998  15.147  43.497  0.00  0.00     0.099 C 
BRANCH  10  11
HETATM   11  C   UNK N   1      90.901  16.401  44.366  0.00  0.00     0.130 C 
BRANCH  11  12
HETATM   12  N   UNK N   1      90.528  17.536  43.505  0.00  0.00    -0.386 N 
ATOM     13  HN  UNK N   1      90.010  17.440  42.631  1.00  0.00     0.160 HD
BRANCH  12  14
HETATM   14  C   UNK N   1      90.930  18.660  43.977  0.00  0.00     0.168 C 
HETATM   15  N   UNK N   1      90.439  19.846  43.564  0.00  0.00    -0.396 N 
HETATM   16  H   UNK N   1      90.763  20.728  43.933  0.00  0.00     0.156 HD
HETATM   17  H   UNK N   1      89.728  19.847  42.844  0.00  0.00     0.156 HD
ENDBRANCH  12  14
ENDBRANCH  11  12
ENDBRANCH  10  11
ENDBRANCH   9  10
ENDBRANCH   1   9
BRANCH   2  18
HETATM   18  C   UNK N   1      94.312  13.377  40.318  0.00  0.00     0.189 C 
HETATM   19  O   UNK N   1      94.853  12.712  41.183  0.00  0.00    -0.645 OA
BRANCH  18  20
HETATM   20  O   UNK N   1      95.019  13.897  39.296  0.00  0.00    -0.772 OA
HETATM   21  H   UNK N   1      94.849  13.284  38.553  0.00  0.00     0.167 HD
ENDBRANCH  18  20
ENDBRANCH   2  18
BRANCH   7  22
HETATM   22  C   UNK N   1      89.553  12.204  37.592  0.00  0.00     0.128 C 
HETATM   23  C   UNK N   1      89.031  10.784  37.420  0.00  0.00     0.040 C 
BRANCH  22  24
HETATM   24  O   UNK N   1      88.460  13.123  37.593  0.00  0.00    -0.395 OA
HETATM   25  H   UNK N   1      87.921  12.967  38.389  0.00  0.00     0.210 HD
ENDBRANCH  22  24
ENDBRANCH   7  22
TORSDOF 9
ENDMDL
MODEL 4
REMARK VINA RESULT:      -6.2      3.897      6.797
REMARK  9 active torsions:
REMARK  status: ('A' for Active; 'I' for Inactive)
REMARK    1  A    between atoms: S_1  and  C_2 
REMARK    2  A    between atoms: S_1  and  C_3 
REMARK    3  A    between atoms: C_3  and  C_6 
REMARK    4  A    between atoms: C_4  and  C_8 
REMARK    5  A    between atoms: C_6  and  N_10 
REMARK    6  A    between atoms: C_8  and  O_14 
REMARK    7  A    between atoms: N_10  and  C_16 
REMARK    8  A    between atoms: C_15  and  C_18 
REMARK    9  A    between atoms: C_18  and  O_20 
ROOT
HETATM    1  C   UNK N   1      90.469  13.007  40.570  0.00  0.00     0.008 C 
HETATM    2  C   UNK N   1      89.497  13.903  40.807  0.00  0.00     0.105 C 
HETATM    3  C   UNK N   1      91.790  13.492  41.119  0.00  0.00     0.069 C 
HETATM    4  N   UNK N   1      89.990  15.003  41.462  0.00  0.00    -0.207 NA
HETATM    5  C   UNK N   1      91.453  14.904  41.609  0.00  0.00     0.091 A 
HETATM    6  C   UNK N   1      89.729  15.295  42.765  0.00  0.00     0.213 A 
HETATM    7  C   UNK N   1      91.234  15.263  43.113  0.00  0.00     0.120 A 
HETATM    8  O   UNK N   1      88.700  15.387  43.390  0.00  0.00    -0.279 OA
ENDROOT
BRANCH   1   9
HETATM    9  S   UNK N   1      90.339  11.503  39.753  0.00  0.00    -0.131 SA
BRANCH   9  10
HETATM   10  C   UNK N   1      90.049  12.057  38.039  0.00  0.00     0.099 C 
BRANCH  10  11
HETATM   11  C   UNK N   1      88.976  11.229  37.331  0.00  0.00     0.130 C 
BRANCH  11  12
HETATM   12  N   UNK N   1      88.442  12.022  36.211  0.00  0.00    -0.386 N 
ATOM     13  HN  UNK N   1      88.317  13.034  36.240  1.00  0.00     0.160 HD
BRANCH  12  14
HETATM   14  C   UNK N   1      88.150  11.294  35.193  0.00  0.00     0.168 C 
HETATM   15  N   UNK N   1      88.006  11.798  33.950  0.00  0.00    -0.396 N 
HETATM   16  H   UNK N   1      87.769  11.223  33.154  0.00  0.00     0.156 HD
HETATM   17  H   UNK N   1      88.125  12.794  33.819  0.00  0.00     0.156 HD
ENDBRANCH  12  14
ENDBRANCH  11  12
ENDBRANCH  10  11
ENDBRANCH   9  10
ENDBRANCH   1   9
BRANCH   2  18
HETATM   18  C   UNK N   1      88.050  13.777  40.516  0.00  0.00     0.189 C 
HETATM   19  O   UNK N   1      87.508  13.843  39.427  0.00  0.00    -0.645 OA
BRANCH  18  20
HETATM   20  O   UNK N   1      87.335  13.565  41.638  0.00  0.00    -0.772 OA
HETATM   21  H   UNK N   1      86.729  14.332  41.680  0.00  0.00     0.167 HD
ENDBRANCH  18  20
ENDBRANCH   2  18
BRANCH   7  22
HETATM   22  C   UNK N   1      91.827  16.584  43.566  0.00  0.00     0.128 C 
HETATM   23  C   UNK N   1      91.118  17.114  44.805  0.00  0.00     0.040 C 
BRANCH  22  24
HETATM   24  O   UNK N   1      93.210  16.376  43.853  0.00  0.00    -0.395 OA
HETATM   25  H   UNK N   1      93.740  16.742  43.122  0.00  0.00     0.210 HD
ENDBRANCH  22  24
ENDBRANCH   7  22
TORSDOF 9
ENDMDL
MODEL 5
REMARK VINA RESULT:      -6.2     30.174     32.021
REMARK  9 active torsions:
REMARK  status: ('A' for Active; 'I' for Inactive)
REMARK    1  A    between atoms: S_1  and  C_2 
REMARK    2  A    between atoms: S_1  and  C_3 
REMARK    3  A    between atoms: C_3  and  C_6 
REMARK    4  A    between atoms: C_4  and  C_8 
REMARK    5  A    between atoms: C_6  and  N_10 
REMARK    6  A    between atoms: C_8  and  O_14 
REMARK    7  A    between atoms: N_10  and  C_16 
REMARK    8  A    between atoms: C_15  and  C_18 
REMARK    9  A    between atoms: C_18  and  O_20 
ROOT
HETATM    1  C   UNK N   1      77.924   6.238  17.157  0.00  0.00     0.008 C 
HETATM    2  C   UNK N   1      77.620   7.326  16.431  0.00  0.00     0.105 C 
HETATM    3  C   UNK N   1      76.709   5.360  17.341  0.00  0.00     0.069 C 
HETATM    4  N   UNK N   1      76.293   7.331  16.085  0.00  0.00    -0.207 NA
HETATM    5  C   UNK N   1      75.592   6.193  16.705  0.00  0.00     0.091 A 
HETATM    6  C   UNK N   1      75.834   7.117  14.822  0.00  0.00     0.213 A 
HETATM    7  C   UNK N   1      75.002   5.901  15.288  0.00  0.00     0.120 A 
HETATM    8  O   UNK N   1      76.111   7.616  13.757  0.00  0.00    -0.279 OA
ENDROOT
BRANCH   1   9
HETATM    9  S   UNK N   1      79.442   5.818  17.841  0.00  0.00    -0.131 SA
BRANCH   9  10
HETATM   10  C   UNK N   1      79.971   4.475  16.727  0.00  0.00     0.099 C 
BRANCH  10  11
HETATM   11  C   UNK N   1      79.973   4.900  15.258  0.00  0.00     0.130 C 
BRANCH  11  12
HETATM   12  N   UNK N   1      81.194   5.684  15.003  0.00  0.00    -0.386 N 
ATOM     13  HN  UNK N   1      81.618   6.312  15.685  1.00  0.00     0.160 HD
BRANCH  12  14
HETATM   14  C   UNK N   1      81.663   5.487  13.824  0.00  0.00     0.168 C 
HETATM   15  N   UNK N   1      82.947   5.736  13.495  0.00  0.00    -0.396 N 
HETATM   16  H   UNK N   1      83.310   5.587  12.565  0.00  0.00     0.156 HD
HETATM   17  H   UNK N   1      83.563   6.103  14.209  0.00  0.00     0.156 HD
ENDBRANCH  12  14
ENDBRANCH  11  12
ENDBRANCH  10  11
ENDBRANCH   9  10
ENDBRANCH   1   9
BRANCH   2  18
HETATM   18  C   UNK N   1      78.535   8.386  15.950  0.00  0.00     0.189 C 
HETATM   19  O   UNK N   1      79.241   8.356  14.957  0.00  0.00    -0.645 OA
BRANCH  18  20
HETATM   20  O   UNK N   1      78.519   9.462  16.760  0.00  0.00    -0.772 OA
HETATM   21  H   UNK N   1      78.565   9.082  17.660  0.00  0.00     0.167 HD
ENDBRANCH  18  20
ENDBRANCH   2  18
BRANCH   7  22
HETATM   22  C   UNK N   1      73.498   6.051  15.159  0.00  0.00     0.128 C 
HETATM   23  C   UNK N   1      72.937   5.121  14.092  0.00  0.00     0.040 C 
BRANCH  22  24
HETATM   24  O   UNK N   1      72.911   5.744  16.424  0.00  0.00    -0.395 OA
HETATM   25  H   UNK N   1      71.949   5.887  16.366  0.00  0.00     0.210 HD
ENDBRANCH  22  24
ENDBRANCH   7  22
TORSDOF 9
ENDMDL
MODEL 6
REMARK VINA RESULT:      -6.1      3.817      5.423
REMARK  9 active torsions:
REMARK  status: ('A' for Active; 'I' for Inactive)
REMARK    1  A    between atoms: S_1  and  C_2 
REMARK    2  A    between atoms: S_1  and  C_3 
REMARK    3  A    between atoms: C_3  and  C_6 
REMARK    4  A    between atoms: C_4  and  C_8 
REMARK    5  A    between atoms: C_6  and  N_10 
REMARK    6  A    between atoms: C_8  and  O_14 
REMARK    7  A    between atoms: N_10  and  C_16 
REMARK    8  A    between atoms: C_15  and  C_18 
REMARK    9  A    between atoms: C_18  and  O_20 
ROOT
HETATM    1  C   UNK N   1      88.814  14.625  42.727  0.00  0.00     0.008 C 
HETATM    2  C   UNK N   1      89.871  15.360  42.347  0.00  0.00     0.105 C 
HETATM    3  C   UNK N   1      88.292  13.799  41.575  0.00  0.00     0.069 C 
HETATM    4  N   UNK N   1      90.157  15.160  41.020  0.00  0.00    -0.207 NA
HETATM    5  C   UNK N   1      89.151  14.279  40.401  0.00  0.00     0.091 A 
HETATM    6  C   UNK N   1      91.246  14.480  40.569  0.00  0.00     0.213 A 
HETATM    7  C   UNK N   1      90.351  13.464  39.824  0.00  0.00     0.120 A 
HETATM    8  O   UNK N   1      92.426  14.580  40.805  0.00  0.00    -0.279 OA
ENDROOT
BRANCH   1   9
HETATM    9  S   UNK N   1      88.070  14.571  44.274  0.00  0.00    -0.131 SA
BRANCH   9  10
HETATM   10  C   UNK N   1      86.577  13.587  43.914  0.00  0.00     0.099 C 
BRANCH  10  11
HETATM   11  C   UNK N   1      85.316  14.189  44.535  0.00  0.00     0.130 C 
BRANCH  11  12
HETATM   12  N   UNK N   1      85.578  15.607  44.835  0.00  0.00    -0.386 N 
ATOM     13  HN  UNK N   1      86.513  16.012  44.894  1.00  0.00     0.160 HD
BRANCH  12  14
HETATM   14  C   UNK N   1      84.497  16.276  45.016  0.00  0.00     0.168 C 
HETATM   15  N   UNK N   1      83.840  16.893  44.012  0.00  0.00    -0.396 N 
HETATM   16  H   UNK N   1      82.994  17.423  44.160  0.00  0.00     0.156 HD
HETATM   17  H   UNK N   1      84.225  16.832  43.079  0.00  0.00     0.156 HD
ENDBRANCH  12  14
ENDBRANCH  11  12
ENDBRANCH  10  11
ENDBRANCH   9  10
ENDBRANCH   1   9
BRANCH   2  18
HETATM   18  C   UNK N   1      90.726  16.230  43.186  0.00  0.00     0.189 C 
HETATM   19  O   UNK N   1      91.722  15.906  43.808  0.00  0.00    -0.645 OA
BRANCH  18  20
HETATM   20  O   UNK N   1      90.277  17.500  43.202  0.00  0.00    -0.772 OA
HETATM   21  H   UNK N   1      90.755  17.911  43.951  0.00  0.00     0.167 HD
ENDBRANCH  18  20
ENDBRANCH   2  18
BRANCH   7  22
HETATM   22  C   UNK N   1      90.481  13.466  38.312  0.00  0.00     0.128 C 
HETATM   23  C   UNK N   1      91.575  12.515  37.848  0.00  0.00     0.040 C 
BRANCH  22  24
HETATM   24  O   UNK N   1      89.227  13.067  37.758  0.00  0.00    -0.395 OA
HETATM   25  H   UNK N   1      89.360  12.258  37.232  0.00  0.00     0.210 HD
ENDBRANCH  22  24
ENDBRANCH   7  22
TORSDOF 9
ENDMDL
MODEL 7
REMARK VINA RESULT:      -6.0      3.198      6.101
REMARK  9 active torsions:
REMARK  status: ('A' for Active; 'I' for Inactive)
REMARK    1  A    between atoms: S_1  and  C_2 
REMARK    2  A    between atoms: S_1  and  C_3 
REMARK    3  A    between atoms: C_3  and  C_6 
REMARK    4  A    between atoms: C_4  and  C_8 
REMARK    5  A    between atoms: C_6  and  N_10 
REMARK    6  A    between atoms: C_8  and  O_14 
REMARK    7  A    between atoms: N_10  and  C_16 
REMARK    8  A    between atoms: C_15  and  C_18 
REMARK    9  A    between atoms: C_18  and  O_20 
ROOT
HETATM    1  C   UNK N   1      92.533  13.900  40.800  0.00  0.00     0.008 C 
HETATM    2  C   UNK N   1      91.445  14.371  40.170  0.00  0.00     0.105 C 
HETATM    3  C   UNK N   1      92.477  14.215  42.276  0.00  0.00     0.069 C 
HETATM    4  N   UNK N   1      90.610  15.016  41.046  0.00  0.00    -0.207 NA
HETATM    5  C   UNK N   1      91.217  15.080  42.388  0.00  0.00     0.091 A 
HETATM    6  C   UNK N   1      89.407  14.528  41.453  0.00  0.00     0.213 A 
HETATM    7  C   UNK N   1      89.854  14.547  42.931  0.00  0.00     0.120 A 
HETATM    8  O   UNK N   1      88.447  14.115  40.846  0.00  0.00    -0.279 OA
ENDROOT
BRANCH   1   9
HETATM    9  S   UNK N   1      93.865  13.060  40.116  0.00  0.00    -0.131 SA
BRANCH   9  10
HETATM   10  C   UNK N   1      95.151  14.353  40.148  0.00  0.00     0.099 C 
BRANCH  10  11
HETATM   11  C   UNK N   1      96.563  13.771  40.235  0.00  0.00     0.130 C 
BRANCH  11  12
HETATM   12  N   UNK N   1      97.387  14.674  41.057  0.00  0.00    -0.386 N 
ATOM     13  HN  UNK N   1      97.010  15.451  41.599  1.00  0.00     0.160 HD
BRANCH  12  14
HETATM   14  C   UNK N   1      98.634  14.371  41.013  0.00  0.00     0.168 C 
HETATM   15  N   UNK N   1      99.507  14.981  40.186  0.00  0.00    -0.396 N 
HETATM   16  H   UNK N   1     100.486  14.735  40.150  0.00  0.00     0.156 HD
HETATM   17  H   UNK N   1      99.159  15.702  39.568  0.00  0.00     0.156 HD
ENDBRANCH  12  14
ENDBRANCH  11  12
ENDBRANCH  10  11
ENDBRANCH   9  10
ENDBRANCH   1   9
BRANCH   2  18
HETATM   18  C   UNK N   1      91.068  14.198  38.749  0.00  0.00     0.189 C 
HETATM   19  O   UNK N   1      90.617  13.197  38.221  0.00  0.00    -0.645 OA
BRANCH  18  20
HETATM   20  O   UNK N   1      91.281  15.323  38.038  0.00  0.00    -0.772 OA
HETATM   21  H   UNK N   1      91.756  15.014  37.241  0.00  0.00     0.167 HD
ENDBRANCH  18  20
ENDBRANCH   2  18
BRANCH   7  22
HETATM   22  C   UNK N   1      89.088  15.499  43.831  0.00  0.00     0.128 C 
HETATM   23  C   UNK N   1      87.793  14.872  44.329  0.00  0.00     0.040 C 
BRANCH  22  24
HETATM   24  O   UNK N   1      89.923  15.828  44.942  0.00  0.00    -0.395 OA
HETATM   25  H   UNK N   1      89.462  15.583  45.764  0.00  0.00     0.210 HD
ENDBRANCH  22  24
ENDBRANCH   7  22
TORSDOF 9
ENDMDL
MODEL 8
REMARK VINA RESULT:      -5.8      2.476      3.252
REMARK  9 active torsions:
REMARK  status: ('A' for Active; 'I' for Inactive)
REMARK    1  A    between atoms: S_1  and  C_2 
REMARK    2  A    between atoms: S_1  and  C_3 
REMARK    3  A    between atoms: C_3  and  C_6 
REMARK    4  A    between atoms: C_4  and  C_8 
REMARK    5  A    between atoms: C_6  and  N_10 
REMARK    6  A    between atoms: C_8  and  O_14 
REMARK    7  A    between atoms: N_10  and  C_16 
REMARK    8  A    between atoms: C_15  and  C_18 
REMARK    9  A    between atoms: C_18  and  O_20 
ROOT
HETATM    1  C   UNK N   1      90.338  14.313  41.902  0.00  0.00     0.008 C 
HETATM    2  C   UNK N   1      91.095  13.271  42.281  0.00  0.00     0.105 C 
HETATM    3  C   UNK N   1      90.854  14.910  40.613  0.00  0.00     0.069 C 
HETATM    4  N   UNK N   1      92.125  13.064  41.399  0.00  0.00    -0.207 NA
HETATM    5  C   UNK N   1      92.140  14.114  40.365  0.00  0.00     0.091 A 
HETATM    6  C   UNK N   1      92.193  12.011  40.540  0.00  0.00     0.213 A 
HETATM    7  C   UNK N   1      92.247  12.958  39.321  0.00  0.00     0.120 A 
HETATM    8  O   UNK N   1      92.096  10.818  40.703  0.00  0.00    -0.279 OA
ENDROOT
BRANCH   1   9
HETATM    9  S   UNK N   1      88.968  14.967  42.704  0.00  0.00    -0.131 SA
BRANCH   9  10
HETATM   10  C   UNK N   1      89.702  15.485  44.291  0.00  0.00     0.099 C 
BRANCH  10  11
HETATM   11  C   UNK N   1      90.917  16.393  44.104  0.00  0.00     0.130 C 
BRANCH  11  12
HETATM   12  N   UNK N   1      90.487  17.604  43.383  0.00  0.00    -0.386 N 
ATOM     13  HN  UNK N   1      89.870  17.591  42.570  1.00  0.00     0.160 HD
BRANCH  12  14
HETATM   14  C   UNK N   1      90.976  18.676  43.893  0.00  0.00     0.168 C 
HETATM   15  N   UNK N   1      90.472  19.902  43.643  0.00  0.00    -0.396 N 
HETATM   16  H   UNK N   1      90.864  20.743  44.041  0.00  0.00     0.156 HD
HETATM   17  H   UNK N   1      89.680  19.977  43.019  0.00  0.00     0.156 HD
ENDBRANCH  12  14
ENDBRANCH  11  12
ENDBRANCH  10  11
ENDBRANCH   9  10
ENDBRANCH   1   9
BRANCH   2  18
HETATM   18  C   UNK N   1      90.882  12.360  43.428  0.00  0.00     0.189 C 
HETATM   19  O   UNK N   1      89.890  11.695  43.668  0.00  0.00    -0.645 OA
BRANCH  18  20
HETATM   20  O   UNK N   1      91.956  12.325  44.241  0.00  0.00    -0.772 OA
HETATM   21  H   UNK N   1      91.986  13.220  44.634  0.00  0.00     0.167 HD
ENDBRANCH  18  20
ENDBRANCH   2  18
BRANCH   7  22
HETATM   22  C   UNK N   1      93.534  12.916  38.519  0.00  0.00     0.128 C 
HETATM   23  C   UNK N   1      93.745  11.550  37.880  0.00  0.00     0.040 C 
BRANCH  22  24
HETATM   24  O   UNK N   1      93.459  13.917  37.504  0.00  0.00    -0.395 OA
HETATM   25  H   UNK N   1      92.911  13.581  36.772  0.00  0.00     0.210 HD
ENDBRANCH  22  24
ENDBRANCH   7  22
TORSDOF 9
ENDMDL
MODEL 9
REMARK VINA RESULT:      -5.7      2.138      2.849
REMARK  9 active torsions:
REMARK  status: ('A' for Active; 'I' for Inactive)
REMARK    1  A    between atoms: S_1  and  C_2 
REMARK    2  A    between atoms: S_1  and  C_3 
REMARK    3  A    between atoms: C_3  and  C_6 
REMARK    4  A    between atoms: C_4  and  C_8 
REMARK    5  A    between atoms: C_6  and  N_10 
REMARK    6  A    between atoms: C_8  and  O_14 
REMARK    7  A    between atoms: N_10  and  C_16 
REMARK    8  A    between atoms: C_15  and  C_18 
REMARK    9  A    between atoms: C_18  and  O_20 
ROOT
HETATM    1  C   UNK N   1      90.462  13.649  42.542  0.00  0.00     0.008 C 
HETATM    2  C   UNK N   1      89.876  13.161  41.437  0.00  0.00     0.105 C 
HETATM    3  C   UNK N   1      91.966  13.597  42.419  0.00  0.00     0.069 C 
HETATM    4  N   UNK N   1      90.813  12.742  40.527  0.00  0.00    -0.207 NA
HETATM    5  C   UNK N   1      92.170  12.863  41.089  0.00  0.00     0.091 A 
HETATM    6  C   UNK N   1      91.081  13.384  39.358  0.00  0.00     0.213 A 
HETATM    7  C   UNK N   1      92.559  13.585  39.760  0.00  0.00     0.120 A 
HETATM    8  O   UNK N   1      90.374  13.759  38.453  0.00  0.00    -0.279 OA
ENDROOT
BRANCH   1   9
HETATM    9  S   UNK N   1      89.701  14.254  43.958  0.00  0.00    -0.131 SA
BRANCH   9  10
HETATM   10  C   UNK N   1      89.475  16.008  43.514  0.00  0.00     0.099 C 
BRANCH  10  11
HETATM   11  C   UNK N   1      90.801  16.762  43.415  0.00  0.00     0.130 C 
BRANCH  11  12
HETATM   12  N   UNK N   1      90.528  18.203  43.545  0.00  0.00    -0.386 N 
ATOM     13  HN  UNK N   1      89.838  18.703  42.983  1.00  0.00     0.160 HD
BRANCH  12  14
HETATM   14  C   UNK N   1      91.256  18.760  44.444  0.00  0.00     0.168 C 
HETATM   15  N   UNK N   1      91.243  20.088  44.678  0.00  0.00    -0.396 N 
HETATM   16  H   UNK N   1      91.823  20.523  45.382  0.00  0.00     0.156 HD
HETATM   17  H   UNK N   1      90.639  20.670  44.113  0.00  0.00     0.156 HD
ENDBRANCH  12  14
ENDBRANCH  11  12
ENDBRANCH  10  11
ENDBRANCH   9  10
ENDBRANCH   1   9
BRANCH   2  18
HETATM   18  C   UNK N   1      88.431  13.115  41.115  0.00  0.00     0.189 C 
HETATM   19  O   UNK N   1      87.768  13.982  40.575  0.00  0.00    -0.645 OA
BRANCH  18  20
HETATM   20  O   UNK N   1      87.874  11.949  41.497  0.00  0.00    -0.772 OA
HETATM   21  H   UNK N   1      88.490  11.602  42.173  0.00  0.00     0.167 HD
ENDBRANCH  18  20
ENDBRANCH   2  18
BRANCH   7  22
HETATM   22  C   UNK N   1      93.574  12.864  38.894  0.00  0.00     0.128 C 
HETATM   23  C   UNK N   1      93.141  12.839  37.435  0.00  0.00     0.040 C 
BRANCH  22  24
HETATM   24  O   UNK N   1      94.824  13.544  39.015  0.00  0.00    -0.395 OA
HETATM   25  H   UNK N   1      95.385  13.305  38.255  0.00  0.00     0.210 HD
ENDBRANCH  22  24
ENDBRANCH   7  22
TORSDOF 9
ENDMDL
