MODEL 1
REMARK VINA RESULT:      -6.2      0.000      0.000
REMARK  7 active torsions:
REMARK  status: ('A' for Active; 'I' for Inactive)
REMARK    1  A    between atoms: C_2  and  O_3 
REMARK    2  A    between atoms: C_2  and  C_4 
REMARK    3  A    between atoms: C_4  and  N_5 
REMARK    4  A    between atoms: C_4  and  C_6 
REMARK    5  A    between atoms: C_6  and  C_7 
REMARK    6  A    between atoms: C_7  and  C_8 
REMARK    7  A    between atoms: C_8  and  N_9 
REMARK       I    between atoms: N_9  and  C_10 
REMARK       I    between atoms: C_10  and  N_11 
ROOT
HETATM    1  C   UNK N   1      92.609  15.394  43.696  0.00  0.00     0.023 C 
ENDROOT
BRANCH   1   2
HETATM    2  C   UNK N   1      92.558  16.922  43.789  0.00  0.00     0.048 C 
BRANCH   2   3
HETATM    3  C   UNK N   1      91.157  17.468  44.102  0.00  0.00     0.314 C 
BRANCH   3   4
HETATM    4  C   UNK N   1      91.143  19.001  44.219  0.00  0.00     0.173 C 
HETATM    5  O   UNK N   1      91.015  19.793  43.294  0.00  0.00    -0.648 OA
BRANCH   4   6
HETATM    6  O   UNK N   1      91.189  19.457  45.486  0.00  0.00    -0.775 OA
HETATM    7  H   UNK N   1      90.965  20.408  45.397  0.00  0.00     0.167 HD
ENDBRANCH   4   6
ENDBRANCH   3   4
BRANCH   3   8
HETATM    8  N   UNK N   1      90.209  17.050  43.048  0.00  0.00     0.093 N 
HETATM    9  H   UNK N   1      89.270  17.018  43.456  0.00  0.00     0.314 HD
HETATM   10  H   UNK N   1      90.422  16.098  42.754  0.00  0.00     0.314 HD
ENDBRANCH   3   8
ENDBRANCH   2   3
ENDBRANCH   1   2
BRANCH   1  11
HETATM   11  C   UNK N   1      93.077  14.940  42.314  0.00  0.00     0.138 C 
BRANCH  11  12
HETATM   12  N   UNK N   1      94.505  15.127  42.177  0.00  0.00    -0.227 N 
HETATM   13  C   UNK N   1      95.310  14.737  41.170  0.00  0.00     0.665 C 
HETATM   14  N   UNK N   1      96.578  14.953  41.168  0.00  0.00    -0.235 N 
HETATM   15  N   UNK N   1      94.767  14.101  40.129  0.00  0.00    -0.235 N 
HETATM   16  H   UNK N   1      96.838  15.447  42.021  0.00  0.00     0.174 HD
ATOM     17  HN  UNK N   1      97.224  14.674  40.429  1.00  0.00     0.174 HD
HETATM   18  H   UNK N   1      95.394  13.822  39.388  0.00  0.00     0.174 HD
HETATM   19  H   UNK N   1      93.795  13.860  40.056  0.00  0.00     0.174 HD
HETATM   20  H   UNK N   1      94.945  15.604  42.952  0.00  0.00     0.177 HD
ENDBRANCH  11  12
ENDBRANCH   1  11
TORSDOF 7
ENDMDL
MODEL 2
REMARK VINA RESULT:      -6.1      4.106      5.506
REMARK  7 active torsions:
REMARK  status: ('A' for Active; 'I' for Inactive)
REMARK    1  A    between atoms: C_2  and  O_3 
REMARK    2  A    between atoms: C_2  and  C_4 
REMARK    3  A    between atoms: C_4  and  N_5 
REMARK    4  A    between atoms: C_4  and  C_6 
REMARK    5  A    between atoms: C_6  and  C_7 
REMARK    6  A    between atoms: C_7  and  C_8 
REMARK    7  A    between atoms: C_8  and  N_9 
REMARK       I    between atoms: N_9  and  C_10 
REMARK       I    between atoms: C_10  and  N_11 
ROOT
HETATM    1  C   UNK N   1      89.914  15.432  44.469  0.00  0.00     0.023 C 
ENDROOT
BRANCH   1   2
HETATM    2  C   UNK N   1      88.958  15.671  43.295  0.00  0.00     0.048 C 
BRANCH   2   3
HETATM    3  C   UNK N   1      89.059  14.599  42.200  0.00  0.00     0.314 C 
BRANCH   3   4
HETATM    4  C   UNK N   1      89.986  15.029  41.050  0.00  0.00     0.173 C 
HETATM    5  O   UNK N   1      90.353  14.324  40.119  0.00  0.00    -0.648 OA
BRANCH   4   6
HETATM    6  O   UNK N   1      90.320  16.334  41.071  0.00  0.00    -0.775 OA
HETATM    7  H   UNK N   1      91.286  16.327  40.895  0.00  0.00     0.167 HD
ENDBRANCH   4   6
ENDBRANCH   3   4
BRANCH   3   8
HETATM    8  N   UNK N   1      89.556  13.334  42.779  0.00  0.00     0.093 N 
HETATM    9  H   UNK N   1      90.089  13.556  43.625  0.00  0.00     0.314 HD
HETATM   10  H   UNK N   1      90.215  12.899  42.135  0.00  0.00     0.314 HD
ENDBRANCH   3   8
ENDBRANCH   2   3
ENDBRANCH   1   2
BRANCH   1  11
HETATM   11  C   UNK N   1      91.060  16.442  44.462  0.00  0.00     0.138 C 
BRANCH  11  12
HETATM   12  N   UNK N   1      90.690  17.623  43.714  0.00  0.00    -0.227 N 
HETATM   13  C   UNK N   1      90.767  18.914  44.089  0.00  0.00     0.665 C 
HETATM   14  N   UNK N   1      90.392  19.884  43.332  0.00  0.00    -0.235 N 
HETATM   15  N   UNK N   1      91.255  19.197  45.299  0.00  0.00    -0.235 N 
HETATM   16  H   UNK N   1      90.050  19.509  42.448  0.00  0.00     0.174 HD
ATOM     17  HN  UNK N   1      90.432  20.873  43.577  1.00  0.00     0.174 HD
HETATM   18  H   UNK N   1      91.303  20.174  45.554  0.00  0.00     0.174 HD
HETATM   19  H   UNK N   1      91.542  18.508  45.971  0.00  0.00     0.174 HD
HETATM   20  H   UNK N   1      90.315  17.439  42.793  0.00  0.00     0.177 HD
ENDBRANCH  11  12
ENDBRANCH   1  11
TORSDOF 7
ENDMDL
MODEL 3
REMARK VINA RESULT:      -5.6     31.864     33.378
REMARK  7 active torsions:
REMARK  status: ('A' for Active; 'I' for Inactive)
REMARK    1  A    between atoms: C_2  and  O_3 
REMARK    2  A    between atoms: C_2  and  C_4 
REMARK    3  A    between atoms: C_4  and  N_5 
REMARK    4  A    between atoms: C_4  and  C_6 
REMARK    5  A    between atoms: C_6  and  C_7 
REMARK    6  A    between atoms: C_7  and  C_8 
REMARK    7  A    between atoms: C_8  and  N_9 
REMARK       I    between atoms: N_9  and  C_10 
REMARK       I    between atoms: C_10  and  N_11 
ROOT
HETATM    1  C   UNK N   1      74.725  42.025  28.259  0.00  0.00     0.023 C 
ENDROOT
BRANCH   1   2
HETATM    2  C   UNK N   1      73.648  41.120  27.654  0.00  0.00     0.048 C 
BRANCH   2   3
HETATM    3  C   UNK N   1      74.218  40.010  26.758  0.00  0.00     0.314 C 
BRANCH   3   4
HETATM    4  C   UNK N   1      74.406  38.688  27.520  0.00  0.00     0.173 C 
HETATM    5  O   UNK N   1      74.708  38.574  28.701  0.00  0.00    -0.648 OA
BRANCH   4   6
HETATM    6  O   UNK N   1      74.114  37.589  26.797  0.00  0.00    -0.775 OA
HETATM    7  H   UNK N   1      74.654  36.886  27.218  0.00  0.00     0.167 HD
ENDBRANCH   4   6
ENDBRANCH   3   4
BRANCH   3   8
HETATM    8  N   UNK N   1      73.321  39.785  25.605  0.00  0.00     0.093 N 
HETATM    9  H   UNK N   1      72.743  40.621  25.481  0.00  0.00     0.314 HD
HETATM   10  H   UNK N   1      72.677  39.024  25.817  0.00  0.00     0.314 HD
ENDBRANCH   3   8
ENDBRANCH   2   3
ENDBRANCH   1   2
BRANCH   1  11
HETATM   11  C   UNK N   1      74.436  42.320  29.730  0.00  0.00     0.138 C 
BRANCH  11  12
HETATM   12  N   UNK N   1      74.177  41.092  30.450  0.00  0.00    -0.227 N 
HETATM   13  C   UNK N   1      74.995  40.415  31.278  0.00  0.00     0.665 C 
HETATM   14  N   UNK N   1      74.650  39.319  31.856  0.00  0.00    -0.235 N 
HETATM   15  N   UNK N   1      76.216  40.904  31.508  0.00  0.00    -0.235 N 
HETATM   16  H   UNK N   1      73.697  39.079  31.585  0.00  0.00     0.174 HD
ATOM     17  HN  UNK N   1      75.238  38.773  32.487  1.00  0.00     0.174 HD
HETATM   18  H   UNK N   1      76.808  40.376  32.135  0.00  0.00     0.174 HD
HETATM   19  H   UNK N   1      76.584  41.734  31.079  0.00  0.00     0.174 HD
HETATM   20  H   UNK N   1      73.260  40.696  30.294  0.00  0.00     0.177 HD
ENDBRANCH  11  12
ENDBRANCH   1  11
TORSDOF 7
ENDMDL
MODEL 4
REMARK VINA RESULT:      -5.5     33.092     35.240
REMARK  7 active torsions:
REMARK  status: ('A' for Active; 'I' for Inactive)
REMARK    1  A    between atoms: C_2  and  O_3 
REMARK    2  A    between atoms: C_2  and  C_4 
REMARK    3  A    between atoms: C_4  and  N_5 
REMARK    4  A    between atoms: C_4  and  C_6 
REMARK    5  A    between atoms: C_6  and  C_7 
REMARK    6  A    between atoms: C_7  and  C_8 
REMARK    7  A    between atoms: C_8  and  N_9 
REMARK       I    between atoms: N_9  and  C_10 
REMARK       I    between atoms: C_10  and  N_11 
ROOT
HETATM    1  C   UNK N   1      71.955  41.236  26.491  0.00  0.00     0.023 C 
ENDROOT
BRANCH   1   2
HETATM    2  C   UNK N   1      73.272  40.506  26.213  0.00  0.00     0.048 C 
BRANCH   2   3
HETATM    3  C   UNK N   1      74.106  40.251  27.478  0.00  0.00     0.314 C 
BRANCH   3   4
HETATM    4  C   UNK N   1      74.349  38.752  27.722  0.00  0.00     0.173 C 
HETATM    5  O   UNK N   1      74.751  38.247  28.762  0.00  0.00    -0.648 OA
BRANCH   4   6
HETATM    6  O   UNK N   1      73.986  37.961  26.693  0.00  0.00    -0.775 OA
HETATM    7  H   UNK N   1      73.999  38.567  25.921  0.00  0.00     0.167 HD
ENDBRANCH   4   6
ENDBRANCH   3   4
BRANCH   3   8
HETATM    8  N   UNK N   1      75.405  40.946  27.372  0.00  0.00     0.093 N 
HETATM    9  H   UNK N   1      75.862  40.914  28.289  0.00  0.00     0.314 HD
HETATM   10  H   UNK N   1      75.250  41.932  27.167  0.00  0.00     0.314 HD
ENDBRANCH   3   8
ENDBRANCH   2   3
ENDBRANCH   1   2
BRANCH   1  11
HETATM   11  C   UNK N   1      71.042  41.213  25.265  0.00  0.00     0.138 C 
BRANCH  11  12
HETATM   12  N   UNK N   1      70.571  39.870  25.010  0.00  0.00    -0.227 N 
HETATM   13  C   UNK N   1      70.896  39.044  23.997  0.00  0.00     0.665 C 
HETATM   14  N   UNK N   1      70.396  37.865  23.871  0.00  0.00    -0.235 N 
HETATM   15  N   UNK N   1      71.773  39.469  23.085  0.00  0.00    -0.235 N 
HETATM   16  H   UNK N   1      69.750  37.688  24.640  0.00  0.00     0.174 HD
ATOM     17  HN  UNK N   1      70.612  37.209  23.120  1.00  0.00     0.174 HD
HETATM   18  H   UNK N   1      72.000  38.828  22.337  0.00  0.00     0.174 HD
HETATM   19  H   UNK N   1      72.191  40.382  23.081  0.00  0.00     0.174 HD
HETATM   20  H   UNK N   1      69.902  39.522  25.683  0.00  0.00     0.177 HD
ENDBRANCH  11  12
ENDBRANCH   1  11
TORSDOF 7
ENDMDL
MODEL 5
REMARK VINA RESULT:      -5.5      9.891     11.992
REMARK  7 active torsions:
REMARK  status: ('A' for Active; 'I' for Inactive)
REMARK    1  A    between atoms: C_2  and  O_3 
REMARK    2  A    between atoms: C_2  and  C_4 
REMARK    3  A    between atoms: C_4  and  N_5 
REMARK    4  A    between atoms: C_4  and  C_6 
REMARK    5  A    between atoms: C_6  and  C_7 
REMARK    6  A    between atoms: C_7  and  C_8 
REMARK    7  A    between atoms: C_8  and  N_9 
REMARK       I    between atoms: N_9  and  C_10 
REMARK       I    between atoms: C_10  and  N_11 
ROOT
HETATM    1  C   UNK N   1      94.173  26.177  46.309  0.00  0.00     0.023 C 
ENDROOT
BRANCH   1   2
HETATM    2  C   UNK N   1      92.646  26.251  46.210  0.00  0.00     0.048 C 
BRANCH   2   3
HETATM    3  C   UNK N   1      91.925  25.466  47.316  0.00  0.00     0.314 C 
BRANCH   3   4
HETATM    4  C   UNK N   1      90.577  24.898  46.841  0.00  0.00     0.173 C 
HETATM    5  O   UNK N   1      89.596  25.551  46.511  0.00  0.00    -0.648 OA
BRANCH   4   6
HETATM    6  O   UNK N   1      90.560  23.557  46.710  0.00  0.00    -0.775 OA
HETATM    7  H   UNK N   1      91.316  23.262  47.263  0.00  0.00     0.167 HD
ENDBRANCH   4   6
ENDBRANCH   3   4
BRANCH   3   8
HETATM    8  N   UNK N   1      92.782  24.359  47.787  0.00  0.00     0.093 N 
HETATM    9  H   UNK N   1      92.177  23.619  48.155  0.00  0.00     0.314 HD
HETATM   10  H   UNK N   1      93.350  24.676  48.571  0.00  0.00     0.314 HD
ENDBRANCH   3   8
ENDBRANCH   2   3
ENDBRANCH   1   2
BRANCH   1  11
HETATM   11  C   UNK N   1      94.786  27.572  46.433  0.00  0.00     0.138 C 
BRANCH  11  12
HETATM   12  N   UNK N   1      94.038  28.371  47.379  0.00  0.00    -0.227 N 
HETATM   13  C   UNK N   1      94.501  29.261  48.277  0.00  0.00     0.665 C 
HETATM   14  N   UNK N   1      93.729  29.907  49.079  0.00  0.00    -0.235 N 
HETATM   15  N   UNK N   1      95.816  29.482  48.336  0.00  0.00    -0.235 N 
HETATM   16  H   UNK N   1      92.762  29.634  48.911  0.00  0.00     0.174 HD
ATOM     17  HN  UNK N   1      94.037  30.588  49.774  1.00  0.00     0.174 HD
HETATM   18  H   UNK N   1      96.135  30.157  49.018  0.00  0.00     0.174 HD
HETATM   19  H   UNK N   1      96.497  29.004  47.774  0.00  0.00     0.174 HD
HETATM   20  H   UNK N   1      93.038  28.223  47.359  0.00  0.00     0.177 HD
ENDBRANCH  11  12
ENDBRANCH   1  11
TORSDOF 7
ENDMDL
MODEL 6
REMARK VINA RESULT:      -5.4     33.142     34.165
REMARK  7 active torsions:
REMARK  status: ('A' for Active; 'I' for Inactive)
REMARK    1  A    between atoms: C_2  and  O_3 
REMARK    2  A    between atoms: C_2  and  C_4 
REMARK    3  A    between atoms: C_4  and  N_5 
REMARK    4  A    between atoms: C_4  and  C_6 
REMARK    5  A    between atoms: C_6  and  C_7 
REMARK    6  A    between atoms: C_7  and  C_8 
REMARK    7  A    between atoms: C_8  and  N_9 
REMARK       I    between atoms: N_9  and  C_10 
REMARK       I    between atoms: C_10  and  N_11 
ROOT
HETATM    1  C   UNK N   1      75.245   7.492  13.972  0.00  0.00     0.023 C 
ENDROOT
BRANCH   1   2
HETATM    2  C   UNK N   1      75.541   8.212  15.291  0.00  0.00     0.048 C 
BRANCH   2   3
HETATM    3  C   UNK N   1      76.566   7.478  16.170  0.00  0.00     0.314 C 
BRANCH   3   4
HETATM    4  C   UNK N   1      77.888   8.255  16.293  0.00  0.00     0.173 C 
HETATM    5  O   UNK N   1      78.171   9.292  15.708  0.00  0.00    -0.648 OA
BRANCH   4   6
HETATM    6  O   UNK N   1      78.738   7.751  17.209  0.00  0.00    -0.775 OA
HETATM    7  H   UNK N   1      79.491   8.381  17.195  0.00  0.00     0.167 HD
ENDBRANCH   4   6
ENDBRANCH   3   4
BRANCH   3   8
HETATM    8  N   UNK N   1      76.003   7.255  17.518  0.00  0.00     0.093 N 
HETATM    9  H   UNK N   1      75.601   6.313  17.545  0.00  0.00     0.314 HD
HETATM   10  H   UNK N   1      75.229   7.898  17.675  0.00  0.00     0.314 HD
ENDBRANCH   3   8
ENDBRANCH   2   3
ENDBRANCH   1   2
BRANCH   1  11
HETATM   11  C   UNK N   1      75.215   5.976  14.166  0.00  0.00     0.138 C 
BRANCH  11  12
HETATM   12  N   UNK N   1      73.880   5.464  13.943  0.00  0.00    -0.227 N 
HETATM   13  C   UNK N   1      72.892   5.279  14.839  0.00  0.00     0.665 C 
HETATM   14  N   UNK N   1      71.741   4.801  14.517  0.00  0.00    -0.235 N 
HETATM   15  N   UNK N   1      73.117   5.605  16.113  0.00  0.00    -0.235 N 
HETATM   16  H   UNK N   1      71.724   4.606  13.517  0.00  0.00     0.174 HD
ATOM     17  HN  UNK N   1      70.967   4.643  15.162  1.00  0.00     0.174 HD
HETATM   18  H   UNK N   1      72.357   5.457  16.763  0.00  0.00     0.174 HD
HETATM   19  H   UNK N   1      73.991   5.954  16.464  0.00  0.00     0.174 HD
HETATM   20  H   UNK N   1      73.681   5.206  12.986  0.00  0.00     0.177 HD
ENDBRANCH  11  12
ENDBRANCH   1  11
TORSDOF 7
ENDMDL
MODEL 7
REMARK VINA RESULT:      -5.3     14.674     17.370
REMARK  7 active torsions:
REMARK  status: ('A' for Active; 'I' for Inactive)
REMARK    1  A    between atoms: C_2  and  O_3 
REMARK    2  A    between atoms: C_2  and  C_4 
REMARK    3  A    between atoms: C_4  and  N_5 
REMARK    4  A    between atoms: C_4  and  C_6 
REMARK    5  A    between atoms: C_6  and  C_7 
REMARK    6  A    between atoms: C_7  and  C_8 
REMARK    7  A    between atoms: C_8  and  N_9 
REMARK       I    between atoms: N_9  and  C_10 
REMARK       I    between atoms: C_10  and  N_11 
ROOT
HETATM    1  C   UNK N   1      81.606  26.781  37.006  0.00  0.00     0.023 C 
ENDROOT
BRANCH   1   2
HETATM    2  C   UNK N   1      82.793  27.209  37.875  0.00  0.00     0.048 C 
BRANCH   2   3
HETATM    3  C   UNK N   1      83.810  26.084  38.114  0.00  0.00     0.314 C 
BRANCH   3   4
HETATM    4  C   UNK N   1      84.441  25.583  36.804  0.00  0.00     0.173 C 
HETATM    5  O   UNK N   1      84.843  26.283  35.885  0.00  0.00    -0.648 OA
BRANCH   4   6
HETATM    6  O   UNK N   1      84.624  24.249  36.757  0.00  0.00    -0.775 OA
HETATM    7  H   UNK N   1      85.082  24.049  37.602  0.00  0.00     0.167 HD
ENDBRANCH   4   6
ENDBRANCH   3   4
BRANCH   3   8
HETATM    8  N   UNK N   1      84.878  26.556  39.020  0.00  0.00     0.093 N 
HETATM    9  H   UNK N   1      84.939  27.576  38.940  0.00  0.00     0.314 HD
HETATM   10  H   UNK N   1      85.777  26.194  38.706  0.00  0.00     0.314 HD
ENDBRANCH   3   8
ENDBRANCH   2   3
ENDBRANCH   1   2
BRANCH   1  11
HETATM   11  C   UNK N   1      80.426  27.737  37.174  0.00  0.00     0.138 C 
BRANCH  11  12
HETATM   12  N   UNK N   1      79.959  28.196  35.884  0.00  0.00    -0.227 N 
HETATM   13  C   UNK N   1      79.218  29.283  35.596  0.00  0.00     0.665 C 
HETATM   14  N   UNK N   1      78.853  29.581  34.399  0.00  0.00    -0.235 N 
HETATM   15  N   UNK N   1      78.846  30.083  36.598  0.00  0.00    -0.235 N 
HETATM   16  H   UNK N   1      79.214  28.881  33.752  0.00  0.00     0.174 HD
ATOM     17  HN  UNK N   1      78.291  30.391  34.138  1.00  0.00     0.174 HD
HETATM   18  H   UNK N   1      78.292  30.892  36.353  0.00  0.00     0.174 HD
HETATM   19  H   UNK N   1      79.055  29.916  37.566  0.00  0.00     0.174 HD
HETATM   20  H   UNK N   1      80.223  27.607  35.105  0.00  0.00     0.177 HD
ENDBRANCH  11  12
ENDBRANCH   1  11
TORSDOF 7
ENDMDL
MODEL 8
REMARK VINA RESULT:      -5.2      4.753      6.172
REMARK  7 active torsions:
REMARK  status: ('A' for Active; 'I' for Inactive)
REMARK    1  A    between atoms: C_2  and  O_3 
REMARK    2  A    between atoms: C_2  and  C_4 
REMARK    3  A    between atoms: C_4  and  N_5 
REMARK    4  A    between atoms: C_4  and  C_6 
REMARK    5  A    between atoms: C_6  and  C_7 
REMARK    6  A    between atoms: C_7  and  C_8 
REMARK    7  A    between atoms: C_8  and  N_9 
REMARK       I    between atoms: N_9  and  C_10 
REMARK       I    between atoms: C_10  and  N_11 
ROOT
HETATM    1  C   UNK N   1      91.121  15.300  42.202  0.00  0.00     0.023 C 
ENDROOT
BRANCH   1   2
HETATM    2  C   UNK N   1      89.913  15.301  41.260  0.00  0.00     0.048 C 
BRANCH   2   3
HETATM    3  C   UNK N   1      89.213  13.937  41.165  0.00  0.00     0.314 C 
BRANCH   3   4
HETATM    4  C   UNK N   1      88.721  13.635  39.739  0.00  0.00     0.173 C 
HETATM    5  O   UNK N   1      89.404  13.214  38.816  0.00  0.00    -0.648 OA
BRANCH   4   6
HETATM    6  O   UNK N   1      87.391  13.780  39.574  0.00  0.00    -0.775 OA
HETATM    7  H   UNK N   1      87.207  13.285  38.747  0.00  0.00     0.167 HD
ENDBRANCH   4   6
ENDBRANCH   3   4
BRANCH   3   8
HETATM    8  N   UNK N   1      90.136  12.868  41.599  0.00  0.00     0.093 N 
HETATM    9  H   UNK N   1      89.639  12.265  42.262  0.00  0.00     0.314 HD
HETATM   10  H   UNK N   1      90.913  13.276  42.116  0.00  0.00     0.314 HD
ENDBRANCH   3   8
ENDBRANCH   2   3
ENDBRANCH   1   2
BRANCH   1  11
HETATM   11  C   UNK N   1      90.806  16.031  43.506  0.00  0.00     0.138 C 
BRANCH  11  12
HETATM   12  N   UNK N   1      90.443  17.405  43.241  0.00  0.00    -0.227 N 
HETATM   13  C   UNK N   1      90.823  18.516  43.901  0.00  0.00     0.665 C 
HETATM   14  N   UNK N   1      90.420  19.693  43.573  0.00  0.00    -0.235 N 
HETATM   15  N   UNK N   1      91.652  18.389  44.939  0.00  0.00    -0.235 N 
HETATM   16  H   UNK N   1      89.800  19.626  42.767  0.00  0.00     0.174 HD
ATOM     17  HN  UNK N   1      90.681  20.559  44.045  1.00  0.00     0.174 HD
HETATM   18  H   UNK N   1      91.921  19.239  45.415  0.00  0.00     0.174 HD
HETATM   19  H   UNK N   1      91.993  17.511  45.288  0.00  0.00     0.174 HD
HETATM   20  H   UNK N   1      89.813  17.533  42.461  0.00  0.00     0.177 HD
ENDBRANCH  11  12
ENDBRANCH   1  11
TORSDOF 7
ENDMDL
MODEL 9
REMARK VINA RESULT:      -5.2      2.429      2.798
REMARK  7 active torsions:
REMARK  status: ('A' for Active; 'I' for Inactive)
REMARK    1  A    between atoms: C_2  and  O_3 
REMARK    2  A    between atoms: C_2  and  C_4 
REMARK    3  A    between atoms: C_4  and  N_5 
REMARK    4  A    between atoms: C_4  and  C_6 
REMARK    5  A    between atoms: C_6  and  C_7 
REMARK    6  A    between atoms: C_7  and  C_8 
REMARK    7  A    between atoms: C_8  and  N_9 
REMARK       I    between atoms: N_9  and  C_10 
REMARK       I    between atoms: C_10  and  N_11 
ROOT
HETATM    1  C   UNK N   1      92.571  16.780  44.176  0.00  0.00     0.023 C 
ENDROOT
BRANCH   1   2
HETATM    2  C   UNK N   1      91.107  17.038  43.806  0.00  0.00     0.048 C 
BRANCH   2   3
HETATM    3  C   UNK N   1      90.401  15.808  43.217  0.00  0.00     0.314 C 
BRANCH   3   4
HETATM    4  C   UNK N   1      89.155  15.410  44.025  0.00  0.00     0.173 C 
HETATM    5  O   UNK N   1      89.142  15.026  45.187  0.00  0.00    -0.648 OA
BRANCH   4   6
HETATM    6  O   UNK N   1      87.991  15.607  43.375  0.00  0.00    -0.775 OA
HETATM    7  H   UNK N   1      87.328  15.647  44.097  0.00  0.00     0.167 HD
ENDBRANCH   4   6
ENDBRANCH   3   4
BRANCH   3   8
HETATM    8  N   UNK N   1      90.010  16.076  41.817  0.00  0.00     0.093 N 
HETATM    9  H   UNK N   1      90.030  15.189  41.304  0.00  0.00     0.314 HD
HETATM   10  H   UNK N   1      90.707  16.674  41.376  0.00  0.00     0.314 HD
ENDBRANCH   3   8
ENDBRANCH   2   3
ENDBRANCH   1   2
BRANCH   1  11
HETATM   11  C   UNK N   1      93.029  15.405  43.690  0.00  0.00     0.138 C 
BRANCH  11  12
HETATM   12  N   UNK N   1      94.256  15.519  42.934  0.00  0.00    -0.227 N 
HETATM   13  C   UNK N   1      94.583  14.930  41.768  0.00  0.00     0.665 C 
HETATM   14  N   UNK N   1      95.721  15.103  41.194  0.00  0.00    -0.235 N 
HETATM   15  N   UNK N   1      93.685  14.134  41.183  0.00  0.00    -0.235 N 
HETATM   16  H   UNK N   1      96.291  15.734  41.757  0.00  0.00     0.174 HD
ATOM     17  HN  UNK N   1      96.010  14.675  40.314  1.00  0.00     0.174 HD
HETATM   18  H   UNK N   1      93.956  13.706  40.308  0.00  0.00     0.174 HD
HETATM   19  H   UNK N   1      92.785  13.914  41.570  0.00  0.00     0.174 HD
HETATM   20  H   UNK N   1      94.958  16.115  43.354  0.00  0.00     0.177 HD
ENDBRANCH  11  12
ENDBRANCH   1  11
TORSDOF 7
ENDMDL
