MODEL 1
REMARK VINA RESULT:      -5.8      0.000      0.000
REMARK  11 active torsions:
REMARK  status: ('A' for Active; 'I' for Inactive)
REMARK    1  A    between atoms: S_1  and  S_2 
REMARK    2  A    between atoms: S_1  and  C_3 
REMARK    3  A    between atoms: S_2  and  C_4 
REMARK    4  A    between atoms: C_3  and  C_5 
REMARK    5  A    between atoms: C_4  and  C_6 
REMARK    6  A    between atoms: C_5  and  N_7 
REMARK    7  A    between atoms: C_5  and  C_8 
REMARK    8  A    between atoms: C_6  and  N_9 
REMARK    9  A    between atoms: C_6  and  C_10 
REMARK   10  A    between atoms: C_8  and  O_12 
REMARK   11  A    between atoms: C_10  and  O_14 
ROOT
HETATM    1  S   UNK N   1      92.969  15.250  44.251  0.00  0.00    -0.095 SA
ENDROOT
BRANCH   1   2
HETATM    2  S   UNK N   1      93.076  14.252  42.456  0.00  0.00    -0.095 SA
BRANCH   2   3
HETATM    3  C   UNK N   1      94.697  14.757  41.763  0.00  0.00     0.132 C 
BRANCH   3   4
HETATM    4  C   UNK N   1      95.725  13.626  41.638  0.00  0.00     0.324 C 
BRANCH   4   5
HETATM    5  N   UNK N   1      96.981  13.876  42.394  0.00  0.00     0.094 N 
HETATM    6  H   UNK N   1      96.899  14.767  42.884  0.00  0.00     0.314 HD
HETATM    7  H   UNK N   1      97.740  14.006  41.717  0.00  0.00     0.314 HD
ENDBRANCH   4   5
BRANCH   4   8
HETATM    8  C   UNK N   1      96.047  13.455  40.154  0.00  0.00     0.174 C 
HETATM    9  O   UNK N   1      95.809  12.472  39.470  0.00  0.00    -0.648 OA
BRANCH   8  10
HETATM   10  O   UNK N   1      96.691  14.516  39.628  0.00  0.00    -0.775 OA
HETATM   11  H   UNK N   1      96.240  15.291  40.025  0.00  0.00     0.167 HD
ENDBRANCH   8  10
ENDBRANCH   4   8
ENDBRANCH   3   4
ENDBRANCH   2   3
ENDBRANCH   1   2
BRANCH   1  12
HETATM   12  C   UNK N   1      92.576  16.980  43.782  0.00  0.00     0.132 C 
BRANCH  12  13
HETATM   13  C   UNK N   1      91.148  17.432  44.121  0.00  0.00     0.324 C 
BRANCH  13  14
HETATM   14  N   UNK N   1      90.188  17.018  43.064  0.00  0.00     0.094 N 
HETATM   15  H   UNK N   1      90.486  17.389  42.163  0.00  0.00     0.314 HD
HETATM   16  H   UNK N   1      89.276  17.433  43.266  0.00  0.00     0.314 HD
ENDBRANCH  13  14
BRANCH  13  17
HETATM   17  C   UNK N   1      91.111  18.955  44.239  0.00  0.00     0.174 C 
HETATM   18  O   UNK N   1      91.011  19.744  43.309  0.00  0.00    -0.648 OA
BRANCH  17  19
HETATM   19  O   UNK N   1      91.199  19.397  45.508  0.00  0.00    -0.775 OA
HETATM   20  H   UNK N   1      90.554  20.133  45.550  0.00  0.00     0.167 HD
ENDBRANCH  17  19
ENDBRANCH  13  17
ENDBRANCH  12  13
ENDBRANCH   1  12
TORSDOF 11
ENDMDL
MODEL 2
REMARK VINA RESULT:      -5.6      0.924      7.277
REMARK  11 active torsions:
REMARK  status: ('A' for Active; 'I' for Inactive)
REMARK    1  A    between atoms: S_1  and  S_2 
REMARK    2  A    between atoms: S_1  and  C_3 
REMARK    3  A    between atoms: S_2  and  C_4 
REMARK    4  A    between atoms: C_3  and  C_5 
REMARK    5  A    between atoms: C_4  and  C_6 
REMARK    6  A    between atoms: C_5  and  N_7 
REMARK    7  A    between atoms: C_5  and  C_8 
REMARK    8  A    between atoms: C_6  and  N_9 
REMARK    9  A    between atoms: C_6  and  C_10 
REMARK   10  A    between atoms: C_8  and  O_12 
REMARK   11  A    between atoms: C_10  and  O_14 
ROOT
HETATM    1  S   UNK N   1      93.365  14.658  42.158  0.00  0.00    -0.095 SA
ENDROOT
BRANCH   1   2
HETATM    2  S   UNK N   1      92.845  15.239  44.061  0.00  0.00    -0.095 SA
BRANCH   2   3
HETATM    3  C   UNK N   1      92.552  17.044  43.909  0.00  0.00     0.132 C 
BRANCH   3   4
HETATM    4  C   UNK N   1      91.097  17.479  44.116  0.00  0.00     0.324 C 
BRANCH   4   5
HETATM    5  N   UNK N   1      90.180  17.028  43.036  0.00  0.00     0.094 N 
HETATM    6  H   UNK N   1      89.781  16.126  43.298  0.00  0.00     0.314 HD
HETATM    7  H   UNK N   1      90.740  16.844  42.198  0.00  0.00     0.314 HD
ENDBRANCH   4   5
BRANCH   4   8
HETATM    8  C   UNK N   1      91.077  19.006  44.198  0.00  0.00     0.174 C 
HETATM    9  O   UNK N   1      90.990  19.780  43.257  0.00  0.00    -0.648 OA
BRANCH   8  10
HETATM   10  O   UNK N   1      91.212  19.469  45.455  0.00  0.00    -0.775 OA
HETATM   11  H   UNK N   1      91.013  20.426  45.382  0.00  0.00     0.167 HD
ENDBRANCH   8  10
ENDBRANCH   4   8
ENDBRANCH   3   4
ENDBRANCH   2   3
ENDBRANCH   1   2
BRANCH   1  12
HETATM   12  C   UNK N   1      94.881  13.650  42.394  0.00  0.00     0.132 C 
BRANCH  12  13
HETATM   13  C   UNK N   1      96.064  14.046  41.497  0.00  0.00     0.324 C 
BRANCH  13  14
HETATM   14  N   UNK N   1      95.896  15.423  40.964  0.00  0.00     0.094 N 
HETATM   15  H   UNK N   1      96.797  15.787  40.657  0.00  0.00     0.314 HD
HETATM   16  H   UNK N   1      95.575  16.032  41.720  0.00  0.00     0.314 HD
ENDBRANCH  13  14
BRANCH  13  17
HETATM   17  C   UNK N   1      96.153  13.077  40.318  0.00  0.00     0.174 C 
HETATM   18  O   UNK N   1      95.580  13.201  39.244  0.00  0.00    -0.648 OA
BRANCH  17  19
HETATM   19  O   UNK N   1      96.953  12.019  40.552  0.00  0.00    -0.775 OA
HETATM   20  H   UNK N   1      96.507  11.277  40.094  0.00  0.00     0.167 HD
ENDBRANCH  17  19
ENDBRANCH  13  17
ENDBRANCH  12  13
ENDBRANCH   1  12
TORSDOF 11
ENDMDL
MODEL 3
REMARK VINA RESULT:      -5.3      3.035      3.237
REMARK  11 active torsions:
REMARK  status: ('A' for Active; 'I' for Inactive)
REMARK    1  A    between atoms: S_1  and  S_2 
REMARK    2  A    between atoms: S_1  and  C_3 
REMARK    3  A    between atoms: S_2  and  C_4 
REMARK    4  A    between atoms: C_3  and  C_5 
REMARK    5  A    between atoms: C_4  and  C_6 
REMARK    6  A    between atoms: C_5  and  N_7 
REMARK    7  A    between atoms: C_5  and  C_8 
REMARK    8  A    between atoms: C_6  and  N_9 
REMARK    9  A    between atoms: C_6  and  C_10 
REMARK   10  A    between atoms: C_8  and  O_12 
REMARK   11  A    between atoms: C_10  and  O_14 
ROOT
HETATM    1  S   UNK N   1      92.126  14.739  43.592  0.00  0.00    -0.095 SA
ENDROOT
BRANCH   1   2
HETATM    2  S   UNK N   1      93.092  14.620  41.780  0.00  0.00    -0.095 SA
BRANCH   2   3
HETATM    3  C   UNK N   1      92.100  13.405  40.828  0.00  0.00     0.132 C 
BRANCH   3   4
HETATM    4  C   UNK N   1      92.469  13.295  39.344  0.00  0.00     0.324 C 
BRANCH   4   5
HETATM    5  N   UNK N   1      93.800  13.871  39.017  0.00  0.00     0.094 N 
HETATM    6  H   UNK N   1      94.397  13.811  39.842  0.00  0.00     0.314 HD
HETATM    7  H   UNK N   1      93.679  14.873  38.840  0.00  0.00     0.314 HD
ENDBRANCH   4   5
BRANCH   4   8
HETATM    8  C   UNK N   1      91.387  14.020  38.543  0.00  0.00     0.174 C 
HETATM    9  O   UNK N   1      91.297  15.226  38.375  0.00  0.00    -0.648 OA
BRANCH   8  10
HETATM   10  O   UNK N   1      90.458  13.186  38.037  0.00  0.00    -0.775 OA
HETATM   11  H   UNK N   1      90.545  12.372  38.577  0.00  0.00     0.167 HD
ENDBRANCH   8  10
ENDBRANCH   4   8
ENDBRANCH   3   4
ENDBRANCH   2   3
ENDBRANCH   1   2
BRANCH   1  12
HETATM   12  C   UNK N   1      92.239  16.513  44.046  0.00  0.00     0.132 C 
BRANCH  12  13
HETATM   13  C   UNK N   1      90.887  17.218  44.236  0.00  0.00     0.324 C 
BRANCH  13  14
HETATM   14  N   UNK N   1      89.954  16.897  43.123  0.00  0.00     0.094 N 
HETATM   15  H   UNK N   1      90.040  15.913  42.873  0.00  0.00     0.314 HD
HETATM   16  H   UNK N   1      90.229  17.436  42.298  0.00  0.00     0.314 HD
ENDBRANCH  13  14
BRANCH  13  17
HETATM   17  C   UNK N   1      91.102  18.731  44.267  0.00  0.00     0.174 C 
HETATM   18  O   UNK N   1      91.207  19.460  43.291  0.00  0.00    -0.648 OA
BRANCH  17  19
HETATM   19  O   UNK N   1      91.169  19.237  45.514  0.00  0.00    -0.775 OA
HETATM   20  H   UNK N   1      91.851  18.690  45.957  0.00  0.00     0.167 HD
ENDBRANCH  17  19
ENDBRANCH  13  17
ENDBRANCH  12  13
ENDBRANCH   1  12
TORSDOF 11
ENDMDL
MODEL 4
REMARK VINA RESULT:      -5.3     36.908     37.829
REMARK  11 active torsions:
REMARK  status: ('A' for Active; 'I' for Inactive)
REMARK    1  A    between atoms: S_1  and  S_2 
REMARK    2  A    between atoms: S_1  and  C_3 
REMARK    3  A    between atoms: S_2  and  C_4 
REMARK    4  A    between atoms: C_3  and  C_5 
REMARK    5  A    between atoms: C_4  and  C_6 
REMARK    6  A    between atoms: C_5  and  N_7 
REMARK    7  A    between atoms: C_5  and  C_8 
REMARK    8  A    between atoms: C_6  and  N_9 
REMARK    9  A    between atoms: C_6  and  C_10 
REMARK   10  A    between atoms: C_8  and  O_12 
REMARK   11  A    between atoms: C_10  and  O_14 
ROOT
HETATM    1  S   UNK N   1      84.785  39.335  12.191  0.00  0.00    -0.095 SA
ENDROOT
BRANCH   1   2
HETATM    2  S   UNK N   1      82.889  39.689  12.903  0.00  0.00    -0.095 SA
BRANCH   2   3
HETATM    3  C   UNK N   1      83.154  40.162  14.656  0.00  0.00     0.132 C 
BRANCH   3   4
HETATM    4  C   UNK N   1      81.974  39.864  15.589  0.00  0.00     0.324 C 
BRANCH   4   5
HETATM    5  N   UNK N   1      82.076  40.536  16.911  0.00  0.00     0.094 N 
HETATM    6  H   UNK N   1      82.653  39.964  17.528  0.00  0.00     0.314 HD
HETATM    7  H   UNK N   1      81.144  40.544  17.338  0.00  0.00     0.314 HD
ENDBRANCH   4   5
BRANCH   4   8
HETATM    8  C   UNK N   1      81.913  38.350  15.789  0.00  0.00     0.174 C 
HETATM    9  O   UNK N   1      82.762  37.656  16.328  0.00  0.00    -0.648 OA
BRANCH   8  10
HETATM   10  O   UNK N   1      80.806  37.792  15.261  0.00  0.00    -0.775 OA
HETATM   11  H   UNK N   1      80.245  38.557  15.014  0.00  0.00     0.167 HD
ENDBRANCH   8  10
ENDBRANCH   4   8
ENDBRANCH   3   4
ENDBRANCH   2   3
ENDBRANCH   1   2
BRANCH   1  12
HETATM   12  C   UNK N   1      84.931  37.506  12.187  0.00  0.00     0.132 C 
BRANCH  12  13
HETATM   13  C   UNK N   1      84.549  36.826  13.511  0.00  0.00     0.324 C 
BRANCH  13  14
HETATM   14  N   UNK N   1      85.724  36.158  14.129  0.00  0.00     0.094 N 
HETATM   15  H   UNK N   1      86.089  36.734  14.887  0.00  0.00     0.314 HD
HETATM   16  H   UNK N   1      86.467  36.085  13.430  0.00  0.00     0.314 HD
ENDBRANCH  13  14
BRANCH  13  17
HETATM   17  C   UNK N   1      83.474  35.771  13.249  0.00  0.00     0.174 C 
HETATM   18  O   UNK N   1      82.265  35.945  13.326  0.00  0.00    -0.648 OA
BRANCH  17  19
HETATM   19  O   UNK N   1      83.975  34.569  12.907  0.00  0.00    -0.775 OA
HETATM   20  H   UNK N   1      83.594  34.394  12.021  0.00  0.00     0.167 HD
ENDBRANCH  17  19
ENDBRANCH  13  17
ENDBRANCH  12  13
ENDBRANCH   1  12
TORSDOF 11
ENDMDL
MODEL 5
REMARK VINA RESULT:      -5.2     36.966     37.936
REMARK  11 active torsions:
REMARK  status: ('A' for Active; 'I' for Inactive)
REMARK    1  A    between atoms: S_1  and  S_2 
REMARK    2  A    between atoms: S_1  and  C_3 
REMARK    3  A    between atoms: S_2  and  C_4 
REMARK    4  A    between atoms: C_3  and  C_5 
REMARK    5  A    between atoms: C_4  and  C_6 
REMARK    6  A    between atoms: C_5  and  N_7 
REMARK    7  A    between atoms: C_5  and  C_8 
REMARK    8  A    between atoms: C_6  and  N_9 
REMARK    9  A    between atoms: C_6  and  C_10 
REMARK   10  A    between atoms: C_8  and  O_12 
REMARK   11  A    between atoms: C_10  and  O_14 
ROOT
HETATM    1  S   UNK N   1      83.331  38.374  16.145  0.00  0.00    -0.095 SA
ENDROOT
BRANCH   1   2
HETATM    2  S   UNK N   1      84.509  39.106  14.626  0.00  0.00    -0.095 SA
BRANCH   2   3
HETATM    3  C   UNK N   1      84.932  37.620  13.637  0.00  0.00     0.132 C 
BRANCH   3   4
HETATM    4  C   UNK N   1      83.876  37.212  12.603  0.00  0.00     0.324 C 
BRANCH   4   5
HETATM    5  N   UNK N   1      82.822  38.240  12.391  0.00  0.00     0.094 N 
HETATM    6  H   UNK N   1      82.259  38.315  13.239  0.00  0.00     0.314 HD
HETATM    7  H   UNK N   1      82.182  37.897  11.668  0.00  0.00     0.314 HD
ENDBRANCH   4   5
BRANCH   4   8
HETATM    8  C   UNK N   1      83.231  35.913  13.087  0.00  0.00     0.174 C 
HETATM    9  O   UNK N   1      83.757  34.811  13.115  0.00  0.00    -0.648 OA
BRANCH   8  10
HETATM   10  O   UNK N   1      81.948  36.070  13.467  0.00  0.00    -0.775 OA
HETATM   11  H   UNK N   1      81.442  36.027  12.628  0.00  0.00     0.167 HD
ENDBRANCH   8  10
ENDBRANCH   4   8
ENDBRANCH   3   4
ENDBRANCH   2   3
ENDBRANCH   1   2
BRANCH   1  12
HETATM   12  C   UNK N   1      82.209  39.766  16.555  0.00  0.00     0.132 C 
BRANCH  12  13
HETATM   13  C   UNK N   1      80.837  39.713  15.865  0.00  0.00     0.324 C 
BRANCH  13  14
HETATM   14  N   UNK N   1      80.622  38.402  15.198  0.00  0.00     0.094 N 
HETATM   15  H   UNK N   1      81.022  37.656  15.766  0.00  0.00     0.314 HD
HETATM   16  H   UNK N   1      81.128  38.398  14.309  0.00  0.00     0.314 HD
ENDBRANCH  13  14
BRANCH  13  17
HETATM   17  C   UNK N   1      80.757  40.813  14.808  0.00  0.00     0.174 C 
HETATM   18  O   UNK N   1      80.264  41.923  14.963  0.00  0.00    -0.648 OA
BRANCH  17  19
HETATM   19  O   UNK N   1      81.297  40.461  13.625  0.00  0.00    -0.775 OA
HETATM   20  H   UNK N   1      82.212  40.195  13.850  0.00  0.00     0.167 HD
ENDBRANCH  17  19
ENDBRANCH  13  17
ENDBRANCH  12  13
ENDBRANCH   1  12
TORSDOF 11
ENDMDL
MODEL 6
REMARK VINA RESULT:      -5.1     36.946     37.534
REMARK  11 active torsions:
REMARK  status: ('A' for Active; 'I' for Inactive)
REMARK    1  A    between atoms: S_1  and  S_2 
REMARK    2  A    between atoms: S_1  and  C_3 
REMARK    3  A    between atoms: S_2  and  C_4 
REMARK    4  A    between atoms: C_3  and  C_5 
REMARK    5  A    between atoms: C_4  and  C_6 
REMARK    6  A    between atoms: C_5  and  N_7 
REMARK    7  A    between atoms: C_5  and  C_8 
REMARK    8  A    between atoms: C_6  and  N_9 
REMARK    9  A    between atoms: C_6  and  C_10 
REMARK   10  A    between atoms: C_8  and  O_12 
REMARK   11  A    between atoms: C_10  and  O_14 
ROOT
HETATM    1  S   UNK N   1      83.144  39.894  12.812  0.00  0.00    -0.095 SA
ENDROOT
BRANCH   1   2
HETATM    2  S   UNK N   1      85.006  39.385  12.102  0.00  0.00    -0.095 SA
BRANCH   2   3
HETATM    3  C   UNK N   1      85.064  37.560  12.279  0.00  0.00     0.132 C 
BRANCH   3   4
HETATM    4  C   UNK N   1      84.383  37.013  13.539  0.00  0.00     0.324 C 
BRANCH   4   5
HETATM    5  N   UNK N   1      85.338  36.503  14.558  0.00  0.00     0.094 N 
HETATM    6  H   UNK N   1      85.172  35.506  14.696  0.00  0.00     0.314 HD
HETATM    7  H   UNK N   1      85.114  36.944  15.455  0.00  0.00     0.314 HD
ENDBRANCH   4   5
BRANCH   4   8
HETATM    8  C   UNK N   1      83.447  35.885  13.107  0.00  0.00     0.174 C 
HETATM    9  O   UNK N   1      82.236  35.962  12.969  0.00  0.00    -0.648 OA
BRANCH   8  10
HETATM   10  O   UNK N   1      84.085  34.713  12.916  0.00  0.00    -0.775 OA
HETATM   11  H   UNK N   1      83.620  34.086  13.510  0.00  0.00     0.167 HD
ENDBRANCH   8  10
ENDBRANCH   4   8
ENDBRANCH   3   4
ENDBRANCH   2   3
ENDBRANCH   1   2
BRANCH   1  12
HETATM   12  C   UNK N   1      83.391  40.096  14.618  0.00  0.00     0.132 C 
BRANCH  12  13
HETATM   13  C   UNK N   1      82.143  39.830  15.474  0.00  0.00     0.324 C 
BRANCH  13  14
HETATM   14  N   UNK N   1      82.241  40.509  16.793  0.00  0.00     0.094 N 
HETATM   15  H   UNK N   1      82.951  41.240  16.753  0.00  0.00     0.314 HD
HETATM   16  H   UNK N   1      82.556  39.831  17.490  0.00  0.00     0.314 HD
ENDBRANCH  13  14
BRANCH  13  17
HETATM   17  C   UNK N   1      82.002  38.327  15.713  0.00  0.00     0.174 C 
HETATM   18  O   UNK N   1      82.758  37.633  16.378  0.00  0.00    -0.648 OA
BRANCH  17  19
HETATM   19  O   UNK N   1      80.926  37.786  15.108  0.00  0.00    -0.775 OA
HETATM   20  H   UNK N   1      80.786  38.351  14.320  0.00  0.00     0.167 HD
ENDBRANCH  17  19
ENDBRANCH  13  17
ENDBRANCH  12  13
ENDBRANCH   1  12
TORSDOF 11
ENDMDL
MODEL 7
REMARK VINA RESULT:      -5.1      1.991      2.175
REMARK  11 active torsions:
REMARK  status: ('A' for Active; 'I' for Inactive)
REMARK    1  A    between atoms: S_1  and  S_2 
REMARK    2  A    between atoms: S_1  and  C_3 
REMARK    3  A    between atoms: S_2  and  C_4 
REMARK    4  A    between atoms: C_3  and  C_5 
REMARK    5  A    between atoms: C_4  and  C_6 
REMARK    6  A    between atoms: C_5  and  N_7 
REMARK    7  A    between atoms: C_5  and  C_8 
REMARK    8  A    between atoms: C_6  and  N_9 
REMARK    9  A    between atoms: C_6  and  C_10 
REMARK   10  A    between atoms: C_8  and  O_12 
REMARK   11  A    between atoms: C_10  and  O_14 
ROOT
HETATM    1  S   UNK N   1      92.175  14.783  42.487  0.00  0.00    -0.095 SA
ENDROOT
BRANCH   1   2
HETATM    2  S   UNK N   1      94.167  14.539  42.036  0.00  0.00    -0.095 SA
BRANCH   2   3
HETATM    3  C   UNK N   1      94.172  14.154  40.242  0.00  0.00     0.132 C 
BRANCH   3   4
HETATM    4  C   UNK N   1      93.899  12.685  39.898  0.00  0.00     0.324 C 
BRANCH   4   5
HETATM    5  N   UNK N   1      94.868  11.739  40.513  0.00  0.00     0.094 N 
HETATM    6  H   UNK N   1      95.814  12.027  40.262  0.00  0.00     0.314 HD
HETATM    7  H   UNK N   1      94.738  10.821  40.078  0.00  0.00     0.314 HD
ENDBRANCH   4   5
BRANCH   4   8
HETATM    8  C   UNK N   1      93.948  12.549  38.377  0.00  0.00     0.174 C 
HETATM    9  O   UNK N   1      94.343  11.579  37.749  0.00  0.00    -0.648 OA
BRANCH   8  10
HETATM   10  O   UNK N   1      93.539  13.660  37.734  0.00  0.00    -0.775 OA
HETATM   11  H   UNK N   1      92.602  13.477  37.509  0.00  0.00     0.167 HD
ENDBRANCH   8  10
ENDBRANCH   4   8
ENDBRANCH   3   4
ENDBRANCH   2   3
ENDBRANCH   1   2
BRANCH   1  12
HETATM   12  C   UNK N   1      92.175  15.935  43.916  0.00  0.00     0.132 C 
BRANCH  12  13
HETATM   13  C   UNK N   1      90.978  16.895  43.970  0.00  0.00     0.324 C 
BRANCH  13  14
HETATM   14  N   UNK N   1      90.058  16.671  42.823  0.00  0.00     0.094 N 
HETATM   15  H   UNK N   1      90.399  17.173  42.004  0.00  0.00     0.314 HD
HETATM   16  H   UNK N   1      89.144  17.068  43.052  0.00  0.00     0.314 HD
ENDBRANCH  13  14
BRANCH  13  17
HETATM   17  C   UNK N   1      91.480  18.338  43.913  0.00  0.00     0.174 C 
HETATM   18  O   UNK N   1      90.783  19.342  43.956  0.00  0.00    -0.648 OA
BRANCH  17  19
HETATM   19  O   UNK N   1      92.819  18.435  43.810  0.00  0.00    -0.775 OA
HETATM   20  H   UNK N   1      92.989  19.400  43.808  0.00  0.00     0.167 HD
ENDBRANCH  17  19
ENDBRANCH  13  17
ENDBRANCH  12  13
ENDBRANCH   1  12
TORSDOF 11
ENDMDL
MODEL 8
REMARK VINA RESULT:      -5.0      2.293      6.338
REMARK  11 active torsions:
REMARK  status: ('A' for Active; 'I' for Inactive)
REMARK    1  A    between atoms: S_1  and  S_2 
REMARK    2  A    between atoms: S_1  and  C_3 
REMARK    3  A    between atoms: S_2  and  C_4 
REMARK    4  A    between atoms: C_3  and  C_5 
REMARK    5  A    between atoms: C_4  and  C_6 
REMARK    6  A    between atoms: C_5  and  N_7 
REMARK    7  A    between atoms: C_5  and  C_8 
REMARK    8  A    between atoms: C_6  and  N_9 
REMARK    9  A    between atoms: C_6  and  C_10 
REMARK   10  A    between atoms: C_8  and  O_12 
REMARK   11  A    between atoms: C_10  and  O_14 
ROOT
HETATM    1  S   UNK N   1      91.738  13.013  42.045  0.00  0.00    -0.095 SA
ENDROOT
BRANCH   1   2
HETATM    2  S   UNK N   1      90.037  14.057  42.543  0.00  0.00    -0.095 SA
BRANCH   2   3
HETATM    3  C   UNK N   1      90.538  15.816  42.401  0.00  0.00     0.132 C 
BRANCH   3   4
HETATM    4  C   UNK N   1      90.315  16.653  43.666  0.00  0.00     0.324 C 
BRANCH   4   5
HETATM    5  N   UNK N   1      90.543  18.108  43.466  0.00  0.00     0.094 N 
HETATM    6  H   UNK N   1      89.645  18.564  43.302  0.00  0.00     0.314 HD
HETATM    7  H   UNK N   1      91.074  18.231  42.598  0.00  0.00     0.314 HD
ENDBRANCH   4   5
BRANCH   4   8
HETATM    8  C   UNK N   1      91.267  16.130  44.741  0.00  0.00     0.174 C 
HETATM    9  O   UNK N   1      92.447  15.854  44.591  0.00  0.00    -0.648 OA
BRANCH   8  10
HETATM   10  O   UNK N   1      90.667  15.943  45.933  0.00  0.00    -0.775 OA
HETATM   11  H   UNK N   1      90.152  15.117  45.816  0.00  0.00     0.167 HD
ENDBRANCH   8  10
ENDBRANCH   4   8
ENDBRANCH   3   4
ENDBRANCH   2   3
ENDBRANCH   1   2
BRANCH   1  12
HETATM   12  C   UNK N   1      92.905  14.306  41.467  0.00  0.00     0.132 C 
BRANCH  12  13
HETATM   13  C   UNK N   1      94.372  14.073  41.859  0.00  0.00     0.324 C 
BRANCH  13  14
HETATM   14  N   UNK N   1      94.753  14.907  43.029  0.00  0.00     0.094 N 
HETATM   15  H   UNK N   1      94.345  15.836  42.938  0.00  0.00     0.314 HD
HETATM   16  H   UNK N   1      95.768  15.030  43.029  0.00  0.00     0.314 HD
ENDBRANCH  13  14
BRANCH  13  17
HETATM   17  C   UNK N   1      95.278  14.443  40.685  0.00  0.00     0.174 C 
HETATM   18  O   UNK N   1      95.368  13.832  39.629  0.00  0.00    -0.648 OA
BRANCH  17  19
HETATM   19  O   UNK N   1      96.011  15.552  40.902  0.00  0.00    -0.775 OA
HETATM   20  H   UNK N   1      96.899  15.209  41.132  0.00  0.00     0.167 HD
ENDBRANCH  17  19
ENDBRANCH  13  17
ENDBRANCH  12  13
ENDBRANCH   1  12
TORSDOF 11
ENDMDL
MODEL 9
REMARK VINA RESULT:      -5.0      2.948      7.045
REMARK  11 active torsions:
REMARK  status: ('A' for Active; 'I' for Inactive)
REMARK    1  A    between atoms: S_1  and  S_2 
REMARK    2  A    between atoms: S_1  and  C_3 
REMARK    3  A    between atoms: S_2  and  C_4 
REMARK    4  A    between atoms: C_3  and  C_5 
REMARK    5  A    between atoms: C_4  and  C_6 
REMARK    6  A    between atoms: C_5  and  N_7 
REMARK    7  A    between atoms: C_5  and  C_8 
REMARK    8  A    between atoms: C_6  and  N_9 
REMARK    9  A    between atoms: C_6  and  C_10 
REMARK   10  A    between atoms: C_8  and  O_12 
REMARK   11  A    between atoms: C_10  and  O_14 
ROOT
HETATM    1  S   UNK N   1      92.081  12.709  41.726  0.00  0.00    -0.095 SA
ENDROOT
BRANCH   1   2
HETATM    2  S   UNK N   1      92.353  14.635  42.396  0.00  0.00    -0.095 SA
BRANCH   2   3
HETATM    3  C   UNK N   1      90.733  15.442  42.099  0.00  0.00     0.132 C 
BRANCH   3   4
HETATM    4  C   UNK N   1      89.882  15.660  43.356  0.00  0.00     0.324 C 
BRANCH   4   5
HETATM    5  N   UNK N   1      88.474  16.038  43.064  0.00  0.00     0.094 N 
HETATM    6  H   UNK N   1      88.473  16.830  42.421  0.00  0.00     0.314 HD
HETATM    7  H   UNK N   1      88.052  16.389  43.929  0.00  0.00     0.314 HD
ENDBRANCH   4   5
BRANCH   4   8
HETATM    8  C   UNK N   1      90.547  16.763  44.179  0.00  0.00     0.174 C 
HETATM    9  O   UNK N   1      90.943  17.840  43.761  0.00  0.00    -0.648 OA
BRANCH   8  10
HETATM   10  O   UNK N   1      90.715  16.427  45.473  0.00  0.00    -0.775 OA
HETATM   11  H   UNK N   1      90.291  17.160  45.969  0.00  0.00     0.167 HD
ENDBRANCH   8  10
ENDBRANCH   4   8
ENDBRANCH   3   4
ENDBRANCH   2   3
ENDBRANCH   1   2
BRANCH   1  12
HETATM   12  C   UNK N   1      91.585  12.910  39.970  0.00  0.00     0.132 C 
BRANCH  12  13
HETATM   13  C   UNK N   1      92.321  14.028  39.216  0.00  0.00     0.324 C 
BRANCH  13  14
HETATM   14  N   UNK N   1      91.433  14.673  38.214  0.00  0.00     0.094 N 
HETATM   15  H   UNK N   1      90.458  14.556  38.489  0.00  0.00     0.314 HD
HETATM   16  H   UNK N   1      91.545  14.193  37.317  0.00  0.00     0.314 HD
ENDBRANCH  13  14
BRANCH  13  17
HETATM   17  C   UNK N   1      93.528  13.440  38.487  0.00  0.00     0.174 C 
HETATM   18  O   UNK N   1      93.492  12.776  37.460  0.00  0.00    -0.648 OA
BRANCH  17  19
HETATM   19  O   UNK N   1      94.703  13.720  39.083  0.00  0.00    -0.775 OA
HETATM   20  H   UNK N   1      95.135  12.846  39.180  0.00  0.00     0.167 HD
ENDBRANCH  17  19
ENDBRANCH  13  17
ENDBRANCH  12  13
ENDBRANCH   1  12
TORSDOF 11
ENDMDL
