MODEL 1
REMARK VINA RESULT:      -6.9      0.000      0.000
REMARK  7 active torsions:
REMARK  status: ('A' for Active; 'I' for Inactive)
REMARK    1  A    between atoms: C_2  and  O_3 
REMARK    2  A    between atoms: C_2  and  C_4 
REMARK    3  A    between atoms: C_4  and  N_5 
REMARK    4  A    between atoms: C_4  and  C_6 
REMARK    5  A    between atoms: C_6  and  C_7 
REMARK    6  A    between atoms: C_10  and  O_12 
REMARK    7  A    between atoms: C_13  and  O_14 
ROOT
HETATM    1  C   UNK N   1      93.785  27.071  47.144  0.00  0.00    -0.053 A 
HETATM    2  C   UNK N   1      93.826  27.379  45.774  0.00  0.00     0.046 A 
HETATM    3  C   UNK N   1      92.724  26.296  47.635  0.00  0.00     0.010 A 
HETATM    4  C   UNK N   1      92.818  26.926  44.923  0.00  0.00     0.099 A 
HETATM    5  C   UNK N   1      91.716  25.843  46.780  0.00  0.00     0.040 A 
HETATM    6  C   UNK N   1      91.766  26.163  45.425  0.00  0.00     0.098 A 
ENDROOT
BRANCH   1   7
HETATM    7  C   UNK N   1      94.867  27.578  48.072  0.00  0.00     0.085 C 
BRANCH   7   8
HETATM    8  C   UNK N   1      94.939  29.110  48.230  0.00  0.00     0.318 C 
BRANCH   8   9
HETATM    9  C   UNK N   1      93.736  29.618  49.033  0.00  0.00     0.174 C 
HETATM   10  O   UNK N   1      93.305  29.120  50.063  0.00  0.00    -0.648 OA
BRANCH   9  11
HETATM   11  O   UNK N   1      93.182  30.750  48.543  0.00  0.00    -0.775 OA
HETATM   12  H   UNK N   1      93.771  31.010  47.806  0.00  0.00     0.167 HD
ENDBRANCH   9  11
ENDBRANCH   8   9
BRANCH   8  13
HETATM   13  N   UNK N   1      96.220  29.592  48.801  0.00  0.00     0.093 N 
HETATM   14  H   UNK N   1      96.733  28.817  49.212  0.00  0.00     0.314 HD
HETATM   15  H   UNK N   1      95.990  30.229  49.570  0.00  0.00     0.314 HD
ENDBRANCH   8  13
ENDBRANCH   7   8
ENDBRANCH   1   7
BRANCH   4  16
HETATM   16  O   UNK N   1      92.854  27.228  43.591  0.00  0.00    -0.358 OA
HETATM   17  H   UNK N   1      91.948  27.303  43.258  0.00  0.00     0.218 HD
ENDBRANCH   4  16
BRANCH   6  18
HETATM   18  O   UNK N   1      90.786  25.729  44.576  0.00  0.00    -0.358 OA
HETATM   19  H   UNK N   1      91.133  25.004  44.036  0.00  0.00     0.218 HD
ENDBRANCH   6  18
TORSDOF 7
ENDMDL
MODEL 2
REMARK VINA RESULT:      -6.3     12.573     14.388
REMARK  7 active torsions:
REMARK  status: ('A' for Active; 'I' for Inactive)
REMARK    1  A    between atoms: C_2  and  O_3 
REMARK    2  A    between atoms: C_2  and  C_4 
REMARK    3  A    between atoms: C_4  and  N_5 
REMARK    4  A    between atoms: C_4  and  C_6 
REMARK    5  A    between atoms: C_6  and  C_7 
REMARK    6  A    between atoms: C_10  and  O_12 
REMARK    7  A    between atoms: C_13  and  O_14 
ROOT
HETATM    1  C   UNK N   1      92.275  14.296  41.244  0.00  0.00    -0.053 A 
HETATM    2  C   UNK N   1      93.607  13.993  40.918  0.00  0.00     0.046 A 
HETATM    3  C   UNK N   1      91.325  14.378  40.216  0.00  0.00     0.010 A 
HETATM    4  C   UNK N   1      93.974  13.788  39.589  0.00  0.00     0.099 A 
HETATM    5  C   UNK N   1      91.695  14.171  38.884  0.00  0.00     0.040 A 
HETATM    6  C   UNK N   1      93.022  13.878  38.575  0.00  0.00     0.098 A 
ENDROOT
BRANCH   1   7
HETATM    7  C   UNK N   1      91.879  14.539  42.684  0.00  0.00     0.085 C 
BRANCH   7   8
HETATM    8  C   UNK N   1      91.820  16.018  43.115  0.00  0.00     0.318 C 
BRANCH   8   9
HETATM    9  C   UNK N   1      90.524  16.296  43.885  0.00  0.00     0.174 C 
HETATM   10  O   UNK N   1      90.411  16.325  45.102  0.00  0.00    -0.648 OA
BRANCH   9  11
HETATM   11  O   UNK N   1      89.463  16.582  43.098  0.00  0.00    -0.775 OA
HETATM   12  H   UNK N   1      88.721  16.706  43.724  0.00  0.00     0.167 HD
ENDBRANCH   9  11
ENDBRANCH   8   9
BRANCH   8  13
HETATM   13  N   UNK N   1      93.013  16.468  43.873  0.00  0.00     0.093 N 
HETATM   14  H   UNK N   1      93.158  15.871  44.682  0.00  0.00     0.314 HD
HETATM   15  H   UNK N   1      92.808  17.405  44.234  0.00  0.00     0.314 HD
ENDBRANCH   8  13
ENDBRANCH   7   8
ENDBRANCH   1   7
BRANCH   4  16
HETATM   16  O   UNK N   1      95.270  13.496  39.269  0.00  0.00    -0.358 OA
HETATM   17  H   UNK N   1      95.315  13.232  38.338  0.00  0.00     0.218 HD
ENDBRANCH   4  16
BRANCH   6  18
HETATM   18  O   UNK N   1      93.400  13.676  37.278  0.00  0.00    -0.358 OA
HETATM   19  H   UNK N   1      93.583  14.532  36.863  0.00  0.00     0.218 HD
ENDBRANCH   6  18
TORSDOF 7
ENDMDL
MODEL 3
REMARK VINA RESULT:      -6.3      2.860      3.544
REMARK  7 active torsions:
REMARK  status: ('A' for Active; 'I' for Inactive)
REMARK    1  A    between atoms: C_2  and  O_3 
REMARK    2  A    between atoms: C_2  and  C_4 
REMARK    3  A    between atoms: C_4  and  N_5 
REMARK    4  A    between atoms: C_4  and  C_6 
REMARK    5  A    between atoms: C_6  and  C_7 
REMARK    6  A    between atoms: C_10  and  O_12 
REMARK    7  A    between atoms: C_13  and  O_14 
ROOT
HETATM    1  C   UNK N   1      94.208  26.798  46.796  0.00  0.00    -0.053 A 
HETATM    2  C   UNK N   1      94.003  27.156  45.453  0.00  0.00     0.046 A 
HETATM    3  C   UNK N   1      93.157  26.206  47.510  0.00  0.00     0.010 A 
HETATM    4  C   UNK N   1      92.767  26.930  44.849  0.00  0.00     0.099 A 
HETATM    5  C   UNK N   1      91.919  25.980  46.901  0.00  0.00     0.040 A 
HETATM    6  C   UNK N   1      91.728  26.346  45.570  0.00  0.00     0.098 A 
ENDROOT
BRANCH   1   7
HETATM    7  C   UNK N   1      95.542  27.061  47.460  0.00  0.00     0.085 C 
BRANCH   7   8
HETATM    8  C   UNK N   1      96.410  25.813  47.717  0.00  0.00     0.318 C 
BRANCH   8   9
HETATM    9  C   UNK N   1      97.170  25.422  46.444  0.00  0.00     0.174 C 
HETATM   10  O   UNK N   1      98.280  25.823  46.125  0.00  0.00    -0.648 OA
BRANCH   9  11
HETATM   11  O   UNK N   1      96.532  24.510  45.677  0.00  0.00    -0.775 OA
HETATM   12  H   UNK N   1      96.651  23.664  46.155  0.00  0.00     0.167 HD
ENDBRANCH   9  11
ENDBRANCH   8   9
BRANCH   8  13
HETATM   13  N   UNK N   1      97.324  25.950  48.877  0.00  0.00     0.093 N 
HETATM   14  H   UNK N   1      97.430  25.054  49.346  0.00  0.00     0.314 HD
HETATM   15  H   UNK N   1      96.871  26.579  49.549  0.00  0.00     0.314 HD
ENDBRANCH   8  13
ENDBRANCH   7   8
ENDBRANCH   1   7
BRANCH   4  16
HETATM   16  O   UNK N   1      92.565  27.280  43.543  0.00  0.00    -0.358 OA
HETATM   17  H   UNK N   1      93.300  26.948  43.008  0.00  0.00     0.218 HD
ENDBRANCH   4  16
BRANCH   6  18
HETATM   18  O   UNK N   1      90.523  26.135  44.962  0.00  0.00    -0.358 OA
HETATM   19  H   UNK N   1      89.879  26.773  45.304  0.00  0.00     0.218 HD
ENDBRANCH   6  18
TORSDOF 7
ENDMDL
MODEL 4
REMARK VINA RESULT:      -6.1     40.588     42.746
REMARK  7 active torsions:
REMARK  status: ('A' for Active; 'I' for Inactive)
REMARK    1  A    between atoms: C_2  and  O_3 
REMARK    2  A    between atoms: C_2  and  C_4 
REMARK    3  A    between atoms: C_4  and  N_5 
REMARK    4  A    between atoms: C_4  and  C_6 
REMARK    5  A    between atoms: C_6  and  C_7 
REMARK    6  A    between atoms: C_10  and  O_12 
REMARK    7  A    between atoms: C_13  and  O_14 
ROOT
HETATM    1  C   UNK N   1      74.562   6.559  16.087  0.00  0.00    -0.053 A 
HETATM    2  C   UNK N   1      74.500   7.733  15.319  0.00  0.00     0.046 A 
HETATM    3  C   UNK N   1      75.755   6.242  16.751  0.00  0.00     0.010 A 
HETATM    4  C   UNK N   1      75.617   8.562  15.216  0.00  0.00     0.099 A 
HETATM    5  C   UNK N   1      76.873   7.075  16.646  0.00  0.00     0.040 A 
HETATM    6  C   UNK N   1      76.800   8.233  15.875  0.00  0.00     0.098 A 
ENDROOT
BRANCH   1   7
HETATM    7  C   UNK N   1      73.356   5.649  16.184  0.00  0.00     0.085 C 
BRANCH   7   8
HETATM    8  C   UNK N   1      73.127   4.723  14.974  0.00  0.00     0.318 C 
BRANCH   8   9
HETATM    9  C   UNK N   1      73.265   3.254  15.395  0.00  0.00     0.174 C 
HETATM   10  O   UNK N   1      74.240   2.758  15.940  0.00  0.00    -0.648 OA
BRANCH   9  11
HETATM   11  O   UNK N   1      72.160   2.509  15.172  0.00  0.00    -0.775 OA
HETATM   12  H   UNK N   1      71.806   2.846  14.324  0.00  0.00     0.167 HD
ENDBRANCH   9  11
ENDBRANCH   8   9
BRANCH   8  13
HETATM   13  N   UNK N   1      71.848   4.969  14.266  0.00  0.00     0.093 N 
HETATM   14  H   UNK N   1      71.978   4.866  13.263  0.00  0.00     0.314 HD
HETATM   15  H   UNK N   1      71.595   5.950  14.427  0.00  0.00     0.314 HD
ENDBRANCH   8  13
ENDBRANCH   7   8
ENDBRANCH   1   7
BRANCH   4  16
HETATM   16  O   UNK N   1      75.562   9.703  14.466  0.00  0.00    -0.358 OA
HETATM   17  H   UNK N   1      74.636   9.968  14.359  0.00  0.00     0.218 HD
ENDBRANCH   4  16
BRANCH   6  18
HETATM   18  O   UNK N   1      77.885   9.056  15.761  0.00  0.00    -0.358 OA
HETATM   19  H   UNK N   1      78.050   9.234  14.822  0.00  0.00     0.218 HD
ENDBRANCH   6  18
TORSDOF 7
ENDMDL
MODEL 5
REMARK VINA RESULT:      -6.0     34.401     35.385
REMARK  7 active torsions:
REMARK  status: ('A' for Active; 'I' for Inactive)
REMARK    1  A    between atoms: C_2  and  O_3 
REMARK    2  A    between atoms: C_2  and  C_4 
REMARK    3  A    between atoms: C_4  and  N_5 
REMARK    4  A    between atoms: C_4  and  C_6 
REMARK    5  A    between atoms: C_6  and  C_7 
REMARK    6  A    between atoms: C_10  and  O_12 
REMARK    7  A    between atoms: C_13  and  O_14 
ROOT
HETATM    1  C   UNK N   1      83.784  37.248  14.998  0.00  0.00    -0.053 A 
HETATM    2  C   UNK N   1      85.189  37.234  14.994  0.00  0.00     0.046 A 
HETATM    3  C   UNK N   1      83.095  36.756  13.881  0.00  0.00     0.010 A 
HETATM    4  C   UNK N   1      85.881  36.745  13.886  0.00  0.00     0.099 A 
HETATM    5  C   UNK N   1      83.791  36.266  12.773  0.00  0.00     0.040 A 
HETATM    6  C   UNK N   1      85.185  36.264  12.779  0.00  0.00     0.098 A 
ENDROOT
BRANCH   1   7
HETATM    7  C   UNK N   1      83.032  37.797  16.192  0.00  0.00     0.085 C 
BRANCH   7   8
HETATM    8  C   UNK N   1      82.581  39.266  16.071  0.00  0.00     0.318 C 
BRANCH   8   9
HETATM    9  C   UNK N   1      81.078  39.337  15.775  0.00  0.00     0.174 C 
HETATM   10  O   UNK N   1      80.401  40.355  15.764  0.00  0.00    -0.648 OA
BRANCH   9  11
HETATM   11  O   UNK N   1      80.522  38.149  15.447  0.00  0.00    -0.775 OA
HETATM   12  H   UNK N   1      80.126  37.827  16.283  0.00  0.00     0.167 HD
ENDBRANCH   9  11
ENDBRANCH   8   9
BRANCH   8  13
HETATM   13  N   UNK N   1      82.947  40.101  17.241  0.00  0.00     0.093 N 
HETATM   14  H   UNK N   1      83.671  39.641  17.785  0.00  0.00     0.314 HD
HETATM   15  H   UNK N   1      82.120  40.158  17.844  0.00  0.00     0.314 HD
ENDBRANCH   8  13
ENDBRANCH   7   8
ENDBRANCH   1   7
BRANCH   4  16
HETATM   16  O   UNK N   1      87.247  36.733  13.878  0.00  0.00    -0.358 OA
HETATM   17  H   UNK N   1      87.565  37.337  13.191  0.00  0.00     0.218 HD
ENDBRANCH   4  16
BRANCH   6  18
HETATM   18  O   UNK N   1      85.880  35.791  11.702  0.00  0.00    -0.358 OA
HETATM   19  H   UNK N   1      86.824  35.967  11.831  0.00  0.00     0.218 HD
ENDBRANCH   6  18
TORSDOF 7
ENDMDL
MODEL 6
REMARK VINA RESULT:      -6.0     38.968     39.572
REMARK  7 active torsions:
REMARK  status: ('A' for Active; 'I' for Inactive)
REMARK    1  A    between atoms: C_2  and  O_3 
REMARK    2  A    between atoms: C_2  and  C_4 
REMARK    3  A    between atoms: C_4  and  N_5 
REMARK    4  A    between atoms: C_4  and  C_6 
REMARK    5  A    between atoms: C_6  and  C_7 
REMARK    6  A    between atoms: C_10  and  O_12 
REMARK    7  A    between atoms: C_13  and  O_14 
ROOT
HETATM    1  C   UNK N   1      70.082  33.736  16.458  0.00  0.00    -0.053 A 
HETATM    2  C   UNK N   1      70.082  32.402  16.021  0.00  0.00     0.046 A 
HETATM    3  C   UNK N   1      68.957  34.233  17.131  0.00  0.00     0.010 A 
HETATM    4  C   UNK N   1      68.971  31.591  16.248  0.00  0.00     0.099 A 
HETATM    5  C   UNK N   1      67.844  33.417  17.357  0.00  0.00     0.040 A 
HETATM    6  C   UNK N   1      67.855  32.097  16.911  0.00  0.00     0.098 A 
ENDROOT
BRANCH   1   7
HETATM    7  C   UNK N   1      71.280  34.624  16.196  0.00  0.00     0.085 C 
BRANCH   7   8
HETATM    8  C   UNK N   1      71.830  34.585  14.756  0.00  0.00     0.318 C 
BRANCH   8   9
HETATM    9  C   UNK N   1      71.727  35.971  14.110  0.00  0.00     0.174 C 
HETATM   10  O   UNK N   1      71.135  36.933  14.579  0.00  0.00    -0.648 OA
BRANCH   9  11
HETATM   11  O   UNK N   1      72.417  36.096  12.955  0.00  0.00    -0.775 OA
HETATM   12  H   UNK N   1      72.202  36.997  12.639  0.00  0.00     0.167 HD
ENDBRANCH   9  11
ENDBRANCH   8   9
BRANCH   8  13
HETATM   13  N   UNK N   1      73.205  34.037  14.657  0.00  0.00     0.093 N 
HETATM   14  H   UNK N   1      73.449  33.548  15.514  0.00  0.00     0.314 HD
HETATM   15  H   UNK N   1      73.845  34.834  14.582  0.00  0.00     0.314 HD
ENDBRANCH   8  13
ENDBRANCH   7   8
ENDBRANCH   1   7
BRANCH   4  16
HETATM   16  O   UNK N   1      68.967  30.293  15.820  0.00  0.00    -0.358 OA
HETATM   17  H   UNK N   1      68.165  29.855  16.143  0.00  0.00     0.218 HD
ENDBRANCH   4  16
BRANCH   6  18
HETATM   18  O   UNK N   1      66.774  31.288  17.122  0.00  0.00    -0.358 OA
HETATM   19  H   UNK N   1      66.829  30.524  16.528  0.00  0.00     0.218 HD
ENDBRANCH   6  18
TORSDOF 7
ENDMDL
MODEL 7
REMARK VINA RESULT:      -5.9     39.791     42.252
REMARK  7 active torsions:
REMARK  status: ('A' for Active; 'I' for Inactive)
REMARK    1  A    between atoms: C_2  and  O_3 
REMARK    2  A    between atoms: C_2  and  C_4 
REMARK    3  A    between atoms: C_4  and  N_5 
REMARK    4  A    between atoms: C_4  and  C_6 
REMARK    5  A    between atoms: C_6  and  C_7 
REMARK    6  A    between atoms: C_10  and  O_12 
REMARK    7  A    between atoms: C_13  and  O_14 
ROOT
HETATM    1  C   UNK N   1      74.405   5.668  16.662  0.00  0.00    -0.053 A 
HETATM    2  C   UNK N   1      73.445   5.866  15.657  0.00  0.00     0.046 A 
HETATM    3  C   UNK N   1      74.607   4.375  17.166  0.00  0.00     0.010 A 
HETATM    4  C   UNK N   1      72.699   4.789  15.179  0.00  0.00     0.099 A 
HETATM    5  C   UNK N   1      73.857   3.297  16.685  0.00  0.00     0.040 A 
HETATM    6  C   UNK N   1      72.902   3.509  15.693  0.00  0.00     0.098 A 
ENDROOT
BRANCH   1   7
HETATM    7  C   UNK N   1      75.202   6.839  17.196  0.00  0.00     0.085 C 
BRANCH   7   8
HETATM    8  C   UNK N   1      76.672   6.902  16.739  0.00  0.00     0.318 C 
BRANCH   8   9
HETATM    9  C   UNK N   1      76.969   8.260  16.092  0.00  0.00     0.174 C 
HETATM   10  O   UNK N   1      76.287   8.807  15.237  0.00  0.00    -0.648 OA
BRANCH   9  11
HETATM   11  O   UNK N   1      78.060   8.885  16.592  0.00  0.00    -0.775 OA
HETATM   12  H   UNK N   1      78.259   9.587  15.939  0.00  0.00     0.167 HD
ENDBRANCH   9  11
ENDBRANCH   8   9
BRANCH   8  13
HETATM   13  N   UNK N   1      77.646   6.584  17.811  0.00  0.00     0.093 N 
HETATM   14  H   UNK N   1      77.470   5.651  18.176  0.00  0.00     0.314 HD
HETATM   15  H   UNK N   1      77.473   7.237  18.582  0.00  0.00     0.314 HD
ENDBRANCH   8  13
ENDBRANCH   7   8
ENDBRANCH   1   7
BRANCH   4  16
HETATM   16  O   UNK N   1      71.761   4.979  14.204  0.00  0.00    -0.358 OA
HETATM   17  H   UNK N   1      72.180   4.878  13.336  0.00  0.00     0.218 HD
ENDBRANCH   4  16
BRANCH   6  18
HETATM   18  O   UNK N   1      72.161   2.466  15.213  0.00  0.00    -0.358 OA
HETATM   19  H   UNK N   1      71.835   1.940  15.959  0.00  0.00     0.218 HD
ENDBRANCH   6  18
TORSDOF 7
ENDMDL
MODEL 8
REMARK VINA RESULT:      -5.8     39.488     41.882
REMARK  7 active torsions:
REMARK  status: ('A' for Active; 'I' for Inactive)
REMARK    1  A    between atoms: C_2  and  O_3 
REMARK    2  A    between atoms: C_2  and  C_4 
REMARK    3  A    between atoms: C_4  and  N_5 
REMARK    4  A    between atoms: C_4  and  C_6 
REMARK    5  A    between atoms: C_6  and  C_7 
REMARK    6  A    between atoms: C_10  and  O_12 
REMARK    7  A    between atoms: C_13  and  O_14 
ROOT
HETATM    1  C   UNK N   1      74.844   6.475  16.164  0.00  0.00    -0.053 A 
HETATM    2  C   UNK N   1      74.662   5.279  16.877  0.00  0.00     0.046 A 
HETATM    3  C   UNK N   1      74.050   6.721  15.034  0.00  0.00     0.010 A 
HETATM    4  C   UNK N   1      73.711   4.350  16.457  0.00  0.00     0.099 A 
HETATM    5  C   UNK N   1      73.097   5.788  14.616  0.00  0.00     0.040 A 
HETATM    6  C   UNK N   1      72.933   4.602  15.329  0.00  0.00     0.098 A 
ENDROOT
BRANCH   1   7
HETATM    7  C   UNK N   1      75.889   7.475  16.607  0.00  0.00     0.085 C 
BRANCH   7   8
HETATM    8  C   UNK N   1      77.340   6.955  16.620  0.00  0.00     0.318 C 
BRANCH   8   9
HETATM    9  C   UNK N   1      78.283   7.993  16.000  0.00  0.00     0.174 C 
HETATM   10  O   UNK N   1      78.909   7.854  14.960  0.00  0.00    -0.648 OA
BRANCH   9  11
HETATM   11  O   UNK N   1      78.339   9.163  16.675  0.00  0.00    -0.775 OA
HETATM   12  H   UNK N   1      77.776   9.017  17.463  0.00  0.00     0.167 HD
ENDBRANCH   9  11
ENDBRANCH   8   9
BRANCH   8  13
HETATM   13  N   UNK N   1      77.808   6.524  17.960  0.00  0.00     0.093 N 
HETATM   14  H   UNK N   1      78.822   6.586  18.012  0.00  0.00     0.314 HD
HETATM   15  H   UNK N   1      77.571   5.532  18.061  0.00  0.00     0.314 HD
ENDBRANCH   8  13
ENDBRANCH   7   8
ENDBRANCH   1   7
BRANCH   4  16
HETATM   16  O   UNK N   1      73.535   3.184  17.148  0.00  0.00    -0.358 OA
HETATM   17  H   UNK N   1      74.258   3.079  17.783  0.00  0.00     0.218 HD
ENDBRANCH   4  16
BRANCH   6  18
HETATM   18  O   UNK N   1      72.007   3.679  14.931  0.00  0.00    -0.358 OA
HETATM   19  H   UNK N   1      71.138   4.105  14.877  0.00  0.00     0.218 HD
ENDBRANCH   6  18
TORSDOF 7
ENDMDL
MODEL 9
REMARK VINA RESULT:      -5.8     12.090     14.513
REMARK  7 active torsions:
REMARK  status: ('A' for Active; 'I' for Inactive)
REMARK    1  A    between atoms: C_2  and  O_3 
REMARK    2  A    between atoms: C_2  and  C_4 
REMARK    3  A    between atoms: C_4  and  N_5 
REMARK    4  A    between atoms: C_4  and  C_6 
REMARK    5  A    between atoms: C_6  and  C_7 
REMARK    6  A    between atoms: C_10  and  O_12 
REMARK    7  A    between atoms: C_13  and  O_14 
ROOT
HETATM    1  C   UNK N   1      83.425  26.283  37.688  0.00  0.00    -0.053 A 
HETATM    2  C   UNK N   1      84.282  26.664  38.733  0.00  0.00     0.046 A 
HETATM    3  C   UNK N   1      83.691  25.099  36.986  0.00  0.00     0.010 A 
HETATM    4  C   UNK N   1      85.386  25.875  39.056  0.00  0.00     0.099 A 
HETATM    5  C   UNK N   1      84.797  24.310  37.313  0.00  0.00     0.040 A 
HETATM    6  C   UNK N   1      85.644  24.703  38.347  0.00  0.00     0.098 A 
ENDROOT
BRANCH   1   7
HETATM    7  C   UNK N   1      82.238  27.149  37.323  0.00  0.00     0.085 C 
BRANCH   7   8
HETATM    8  C   UNK N   1      80.926  26.389  37.043  0.00  0.00     0.318 C 
BRANCH   8   9
HETATM    9  C   UNK N   1      79.931  26.607  38.189  0.00  0.00     0.174 C 
HETATM   10  O   UNK N   1      78.875  27.217  38.109  0.00  0.00    -0.648 OA
BRANCH   9  11
HETATM   11  O   UNK N   1      80.278  25.999  39.346  0.00  0.00    -0.775 OA
HETATM   12  H   UNK N   1      79.601  26.294  39.989  0.00  0.00     0.167 HD
ENDBRANCH   9  11
ENDBRANCH   8   9
BRANCH   8  13
HETATM   13  N   UNK N   1      80.321  26.707  35.727  0.00  0.00     0.093 N 
HETATM   14  H   UNK N   1      80.275  25.870  35.153  0.00  0.00     0.314 HD
HETATM   15  H   UNK N   1      80.957  27.354  35.248  0.00  0.00     0.314 HD
ENDBRANCH   8  13
ENDBRANCH   7   8
ENDBRANCH   1   7
BRANCH   4  16
HETATM   16  O   UNK N   1      86.224  26.245  40.070  0.00  0.00    -0.358 OA
HETATM   17  H   UNK N   1      86.261  25.534  40.726  0.00  0.00     0.218 HD
ENDBRANCH   4  16
BRANCH   6  18
HETATM   18  O   UNK N   1      86.732  23.944  38.676  0.00  0.00    -0.358 OA
HETATM   19  H   UNK N   1      87.421  24.072  38.007  0.00  0.00     0.218 HD
ENDBRANCH   6  18
TORSDOF 7
ENDMDL
