MODEL 1
REMARK VINA RESULT:      -7.2      0.000      0.000
REMARK  10 active torsions:
REMARK  status: ('A' for Active; 'I' for Inactive)
REMARK       I    between atoms: C_2  and  N_3 
REMARK    1  A    between atoms: C_2  and  C_4 
REMARK    2  A    between atoms: N_3  and  C_5 
REMARK    3  A    between atoms: C_4  and  N_6 
REMARK    4  A    between atoms: C_4  and  C_7 
REMARK    5  A    between atoms: C_5  and  C_8 
REMARK    6  A    between atoms: C_7  and  C_10 
REMARK    7  A    between atoms: C_8  and  C_11 
REMARK    8  A    between atoms: C_10  and  C_12 
REMARK    9  A    between atoms: C_12  and  C_15 
REMARK   10  A    between atoms: C_15  and  N_18 
ROOT
HETATM    1  O   UNK N   1      90.574  13.421  41.926  0.00  0.00    -0.271 OA
HETATM    2  C   UNK N   1      90.519  14.518  41.381  0.00  0.00     0.251 C 
HETATM    3  N   UNK N   1      90.794  14.716  40.043  0.00  0.00    -0.355 N 
HETATM    4  H   UNK N   1      90.714  15.679  39.722  0.00  0.00     0.162 HD
ENDROOT
BRANCH   2   5
HETATM    5  C   UNK N   1      90.206  15.838  42.132  0.00  0.00     0.309 C 
BRANCH   5   6
HETATM    6  N   UNK N   1      88.824  15.788  42.674  0.00  0.00     0.092 N 
HETATM    7  H   UNK N   1      88.467  14.838  42.578  0.00  0.00     0.313 HD
HETATM    8  H   UNK N   1      88.229  16.365  42.074  0.00  0.00     0.313 HD
ENDBRANCH   5   6
BRANCH   5   9
HETATM    9  C   UNK N   1      91.256  16.105  43.221  0.00  0.00     0.045 C 
BRANCH   9  10
HETATM   10  C   UNK N   1      90.653  16.573  44.550  0.00  0.00     0.004 C 
BRANCH  10  11
HETATM   11  C   UNK N   1      91.269  17.902  45.000  0.00  0.00     0.030 C 
BRANCH  11  12
HETATM   12  C   UNK N   1      90.993  19.011  43.988  0.00  0.00     0.267 C 
BRANCH  12  13
HETATM   13  N   UNK N   1      91.308  20.312  44.564  0.00  0.00     0.078 N 
HETATM   14  H   UNK N   1      91.753  20.902  43.862  0.00  0.00     0.312 HD
HETATM   15  H   UNK N   1      90.445  20.785  44.830  0.00  0.00     0.312 HD
ENDBRANCH  12  13
ENDBRANCH  11  12
ENDBRANCH  10  11
ENDBRANCH   9  10
ENDBRANCH   5   9
ENDBRANCH   2   5
BRANCH   3  16
HETATM   16  C   UNK N   1      91.178  13.642  39.137  0.00  0.00     0.084 C 
HETATM   17  C   UNK N   1      90.002  13.309  38.220  0.00  0.00     0.032 C 
BRANCH  16  18
HETATM   18  C   UNK N   1      92.442  14.036  38.345  0.00  0.00     0.063 C 
BRANCH  18  19
HETATM   19  C   UNK N   1      93.673  13.250  38.730  0.00  0.00    -0.056 A 
HETATM   20  C   UNK N   1      94.603  13.791  39.628  0.00  0.00     0.007 A 
HETATM   21  C   UNK N   1      95.738  13.067  39.994  0.00  0.00     0.001 A 
HETATM   22  C   UNK N   1      95.954  11.795  39.466  0.00  0.00     0.000 A 
HETATM   23  C   UNK N   1      95.037  11.249  38.570  0.00  0.00     0.001 A 
HETATM   24  C   UNK N   1      93.901  11.972  38.202  0.00  0.00     0.007 A 
ENDBRANCH  18  19
ENDBRANCH  16  18
ENDBRANCH   3  16
TORSDOF 10
ENDMDL
MODEL 2
REMARK VINA RESULT:      -6.9      0.988      1.115
REMARK  10 active torsions:
REMARK  status: ('A' for Active; 'I' for Inactive)
REMARK       I    between atoms: C_2  and  N_3 
REMARK    1  A    between atoms: C_2  and  C_4 
REMARK    2  A    between atoms: N_3  and  C_5 
REMARK    3  A    between atoms: C_4  and  N_6 
REMARK    4  A    between atoms: C_4  and  C_7 
REMARK    5  A    between atoms: C_5  and  C_8 
REMARK    6  A    between atoms: C_7  and  C_10 
REMARK    7  A    between atoms: C_8  and  C_11 
REMARK    8  A    between atoms: C_10  and  C_12 
REMARK    9  A    between atoms: C_12  and  C_15 
REMARK   10  A    between atoms: C_15  and  N_18 
ROOT
HETATM    1  O   UNK N   1      90.761  13.516  42.589  0.00  0.00    -0.271 OA
HETATM    2  C   UNK N   1      90.228  14.538  42.170  0.00  0.00     0.251 C 
HETATM    3  N   UNK N   1      89.951  14.758  40.836  0.00  0.00    -0.355 N 
HETATM    4  H   UNK N   1      89.510  15.651  40.626  0.00  0.00     0.162 HD
ENDROOT
BRANCH   2   5
HETATM    5  C   UNK N   1      89.860  15.748  43.067  0.00  0.00     0.309 C 
BRANCH   5   6
HETATM    6  N   UNK N   1      88.400  16.010  42.977  0.00  0.00     0.092 N 
HETATM    7  H   UNK N   1      88.060  15.675  42.076  0.00  0.00     0.313 HD
HETATM    8  H   UNK N   1      88.262  17.023  42.960  0.00  0.00     0.313 HD
ENDBRANCH   5   6
BRANCH   5   9
HETATM    9  C   UNK N   1      90.327  15.514  44.512  0.00  0.00     0.045 C 
BRANCH   9  10
HETATM   10  C   UNK N   1      91.617  16.263  44.866  0.00  0.00     0.004 C 
BRANCH  10  11
HETATM   11  C   UNK N   1      91.788  17.512  43.997  0.00  0.00     0.030 C 
BRANCH  11  12
HETATM   12  C   UNK N   1      91.172  18.740  44.665  0.00  0.00     0.267 C 
BRANCH  12  13
HETATM   13  N   UNK N   1      90.475  19.556  43.679  0.00  0.00     0.078 N 
HETATM   14  H   UNK N   1      89.656  19.057  43.334  0.00  0.00     0.312 HD
HETATM   15  H   UNK N   1      90.126  20.404  44.125  0.00  0.00     0.312 HD
ENDBRANCH  12  13
ENDBRANCH  11  12
ENDBRANCH  10  11
ENDBRANCH   9  10
ENDBRANCH   5   9
ENDBRANCH   2   5
BRANCH   3  16
HETATM   16  C   UNK N   1      90.264  13.799  39.785  0.00  0.00     0.084 C 
HETATM   17  C   UNK N   1      88.981  13.431  39.038  0.00  0.00     0.032 C 
BRANCH  16  18
HETATM   18  C   UNK N   1      91.344  14.370  38.843  0.00  0.00     0.063 C 
BRANCH  18  19
HETATM   19  C   UNK N   1      92.666  13.644  38.920  0.00  0.00    -0.056 A 
HETATM   20  C   UNK N   1      93.589  13.965  39.924  0.00  0.00     0.007 A 
HETATM   21  C   UNK N   1      94.808  13.292  40.006  0.00  0.00     0.001 A 
HETATM   22  C   UNK N   1      95.117  12.293  39.084  0.00  0.00     0.000 A 
HETATM   23  C   UNK N   1      94.208  11.968  38.080  0.00  0.00     0.001 A 
HETATM   24  C   UNK N   1      92.987  12.640  37.996  0.00  0.00     0.007 A 
ENDBRANCH  18  19
ENDBRANCH  16  18
ENDBRANCH   3  16
TORSDOF 10
ENDMDL
MODEL 3
REMARK VINA RESULT:      -6.9     13.096     15.032
REMARK  10 active torsions:
REMARK  status: ('A' for Active; 'I' for Inactive)
REMARK       I    between atoms: C_2  and  N_3 
REMARK    1  A    between atoms: C_2  and  C_4 
REMARK    2  A    between atoms: N_3  and  C_5 
REMARK    3  A    between atoms: C_4  and  N_6 
REMARK    4  A    between atoms: C_4  and  C_7 
REMARK    5  A    between atoms: C_5  and  C_8 
REMARK    6  A    between atoms: C_7  and  C_10 
REMARK    7  A    between atoms: C_8  and  C_11 
REMARK    8  A    between atoms: C_10  and  C_12 
REMARK    9  A    between atoms: C_12  and  C_15 
REMARK   10  A    between atoms: C_15  and  N_18 
ROOT
HETATM    1  O   UNK N   1      97.184  25.622  47.732  0.00  0.00    -0.271 OA
HETATM    2  C   UNK N   1      97.288  26.500  46.881  0.00  0.00     0.251 C 
HETATM    3  N   UNK N   1      96.224  27.260  46.441  0.00  0.00    -0.355 N 
HETATM    4  H   UNK N   1      96.450  27.951  45.728  0.00  0.00     0.162 HD
ENDROOT
BRANCH   2   5
HETATM    5  C   UNK N   1      98.608  26.823  46.134  0.00  0.00     0.309 C 
BRANCH   5   6
HETATM    6  N   UNK N   1      99.349  27.882  46.867  0.00  0.00     0.092 N 
HETATM    7  H   UNK N   1      99.554  27.549  47.809  0.00  0.00     0.313 HD
HETATM    8  H   UNK N   1      98.721  28.679  46.990  0.00  0.00     0.313 HD
ENDBRANCH   5   6
BRANCH   5   9
HETATM    9  C   UNK N   1      99.444  25.550  45.933  0.00  0.00     0.045 C 
BRANCH   9  10
HETATM   10  C   UNK N   1      99.892  25.336  44.483  0.00  0.00     0.004 C 
BRANCH  10  11
HETATM   11  C   UNK N   1     101.335  25.805  44.273  0.00  0.00     0.030 C 
BRANCH  11  12
HETATM   12  C   UNK N   1     101.378  27.165  43.578  0.00  0.00     0.267 C 
BRANCH  12  13
HETATM   13  N   UNK N   1     100.964  27.035  42.187  0.00  0.00     0.078 N 
HETATM   14  H   UNK N   1     100.320  26.252  42.090  0.00  0.00     0.312 HD
HETATM   15  H   UNK N   1     100.446  27.868  41.908  0.00  0.00     0.312 HD
ENDBRANCH  12  13
ENDBRANCH  11  12
ENDBRANCH  10  11
ENDBRANCH   9  10
ENDBRANCH   5   9
ENDBRANCH   2   5
BRANCH   3  16
HETATM   16  C   UNK N   1      94.865  27.101  46.941  0.00  0.00     0.084 C 
HETATM   17  C   UNK N   1      94.415  28.402  47.605  0.00  0.00     0.032 C 
BRANCH  16  18
HETATM   18  C   UNK N   1      93.921  26.672  45.798  0.00  0.00     0.063 C 
BRANCH  18  19
HETATM   19  C   UNK N   1      92.551  26.246  46.267  0.00  0.00    -0.056 A 
HETATM   20  C   UNK N   1      91.427  26.469  45.459  0.00  0.00     0.007 A 
HETATM   21  C   UNK N   1      90.160  26.070  45.883  0.00  0.00     0.001 A 
HETATM   22  C   UNK N   1      90.003  25.445  47.119  0.00  0.00     0.000 A 
HETATM   23  C   UNK N   1      91.112  25.221  47.932  0.00  0.00     0.001 A 
HETATM   24  C   UNK N   1      92.381  25.619  47.509  0.00  0.00     0.007 A 
ENDBRANCH  18  19
ENDBRANCH  16  18
ENDBRANCH   3  16
TORSDOF 10
ENDMDL
MODEL 4
REMARK VINA RESULT:      -6.4     10.083     13.014
REMARK  10 active torsions:
REMARK  status: ('A' for Active; 'I' for Inactive)
REMARK       I    between atoms: C_2  and  N_3 
REMARK    1  A    between atoms: C_2  and  C_4 
REMARK    2  A    between atoms: N_3  and  C_5 
REMARK    3  A    between atoms: C_4  and  N_6 
REMARK    4  A    between atoms: C_4  and  C_7 
REMARK    5  A    between atoms: C_5  and  C_8 
REMARK    6  A    between atoms: C_7  and  C_10 
REMARK    7  A    between atoms: C_8  and  C_11 
REMARK    8  A    between atoms: C_10  and  C_12 
REMARK    9  A    between atoms: C_12  and  C_15 
REMARK   10  A    between atoms: C_15  and  N_18 
ROOT
HETATM    1  O   UNK N   1      81.259  18.127  46.184  0.00  0.00    -0.271 OA
HETATM    2  C   UNK N   1      82.322  18.125  45.572  0.00  0.00     0.251 C 
HETATM    3  N   UNK N   1      83.247  19.145  45.655  0.00  0.00    -0.355 N 
HETATM    4  H   UNK N   1      84.086  19.017  45.092  0.00  0.00     0.162 HD
ENDROOT
BRANCH   2   5
HETATM    5  C   UNK N   1      82.738  17.016  44.571  0.00  0.00     0.309 C 
BRANCH   5   6
HETATM    6  N   UNK N   1      82.794  17.579  43.197  0.00  0.00     0.092 N 
HETATM    7  H   UNK N   1      82.731  16.815  42.526  0.00  0.00     0.313 HD
HETATM    8  H   UNK N   1      83.721  17.986  43.061  0.00  0.00     0.313 HD
ENDBRANCH   5   6
BRANCH   5   9
HETATM    9  C   UNK N   1      84.065  16.370  44.997  0.00  0.00     0.045 C 
BRANCH   9  10
HETATM   10  C   UNK N   1      83.907  15.317  46.099  0.00  0.00     0.004 C 
BRANCH  10  11
HETATM   11  C   UNK N   1      84.833  15.612  47.284  0.00  0.00     0.030 C 
BRANCH  11  12
HETATM   12  C   UNK N   1      84.073  16.281  48.427  0.00  0.00     0.267 C 
BRANCH  12  13
HETATM   13  N   UNK N   1      84.998  16.981  49.309  0.00  0.00     0.078 N 
HETATM   14  H   UNK N   1      85.908  16.524  49.287  0.00  0.00     0.312 HD
HETATM   15  H   UNK N   1      85.147  17.929  48.963  0.00  0.00     0.312 HD
ENDBRANCH  12  13
ENDBRANCH  11  12
ENDBRANCH  10  11
ENDBRANCH   9  10
ENDBRANCH   5   9
ENDBRANCH   2   5
BRANCH   3  16
HETATM   16  C   UNK N   1      83.058  20.332  46.478  0.00  0.00     0.084 C 
HETATM   17  C   UNK N   1      83.803  20.156  47.800  0.00  0.00     0.032 C 
BRANCH  16  18
HETATM   18  C   UNK N   1      83.517  21.592  45.713  0.00  0.00     0.063 C 
BRANCH  18  19
HETATM   19  C   UNK N   1      82.405  22.293  44.970  0.00  0.00    -0.056 A 
HETATM   20  C   UNK N   1      81.752  21.653  43.908  0.00  0.00     0.007 A 
HETATM   21  C   UNK N   1      80.719  22.292  43.224  0.00  0.00     0.001 A 
HETATM   22  C   UNK N   1      80.328  23.578  43.593  0.00  0.00     0.000 A 
HETATM   23  C   UNK N   1      80.973  24.226  44.645  0.00  0.00     0.001 A 
HETATM   24  C   UNK N   1      82.007  23.588  45.331  0.00  0.00     0.007 A 
ENDBRANCH  18  19
ENDBRANCH  16  18
ENDBRANCH   3  16
TORSDOF 10
ENDMDL
MODEL 5
REMARK VINA RESULT:      -6.3     13.018     14.754
REMARK  10 active torsions:
REMARK  status: ('A' for Active; 'I' for Inactive)
REMARK       I    between atoms: C_2  and  N_3 
REMARK    1  A    between atoms: C_2  and  C_4 
REMARK    2  A    between atoms: N_3  and  C_5 
REMARK    3  A    between atoms: C_4  and  N_6 
REMARK    4  A    between atoms: C_4  and  C_7 
REMARK    5  A    between atoms: C_5  and  C_8 
REMARK    6  A    between atoms: C_7  and  C_10 
REMARK    7  A    between atoms: C_8  and  C_11 
REMARK    8  A    between atoms: C_10  and  C_12 
REMARK    9  A    between atoms: C_12  and  C_15 
REMARK   10  A    between atoms: C_15  and  N_18 
ROOT
HETATM    1  O   UNK N   1      96.601  24.820  46.131  0.00  0.00    -0.271 OA
HETATM    2  C   UNK N   1      97.115  25.307  47.133  0.00  0.00     0.251 C 
HETATM    3  N   UNK N   1      96.450  25.452  48.333  0.00  0.00    -0.355 N 
HETATM    4  H   UNK N   1      96.994  25.875  49.082  0.00  0.00     0.162 HD
ENDROOT
BRANCH   2   5
HETATM    5  C   UNK N   1      98.552  25.889  47.167  0.00  0.00     0.309 C 
BRANCH   5   6
HETATM    6  N   UNK N   1      99.486  24.880  47.730  0.00  0.00     0.092 N 
HETATM    7  H   UNK N   1      99.007  23.982  47.784  0.00  0.00     0.313 HD
HETATM    8  H   UNK N   1      99.685  25.141  48.698  0.00  0.00     0.313 HD
ENDBRANCH   5   6
BRANCH   5   9
HETATM    9  C   UNK N   1      98.976  26.370  45.772  0.00  0.00     0.045 C 
BRANCH   9  10
HETATM   10  C   UNK N   1     100.496  26.418  45.578  0.00  0.00     0.004 C 
BRANCH  10  11
HETATM   11  C   UNK N   1     100.895  25.883  44.199  0.00  0.00     0.030 C 
BRANCH  11  12
HETATM   12  C   UNK N   1     101.573  26.966  43.360  0.00  0.00     0.267 C 
BRANCH  12  13
HETATM   13  N   UNK N   1     100.869  27.140  42.095  0.00  0.00     0.078 N 
HETATM   14  H   UNK N   1     101.493  27.563  41.410  0.00  0.00     0.312 HD
HETATM   15  H   UNK N   1     100.611  26.227  41.721  0.00  0.00     0.312 HD
ENDBRANCH  12  13
ENDBRANCH  11  12
ENDBRANCH  10  11
ENDBRANCH   9  10
ENDBRANCH   5   9
ENDBRANCH   2   5
BRANCH   3  16
HETATM   16  C   UNK N   1      95.067  25.042  48.536  0.00  0.00     0.084 C 
HETATM   17  C   UNK N   1      94.953  24.286  49.860  0.00  0.00     0.032 C 
BRANCH  16  18
HETATM   18  C   UNK N   1      94.132  26.269  48.483  0.00  0.00     0.063 C 
BRANCH  18  19
HETATM   19  C   UNK N   1      93.237  26.301  47.268  0.00  0.00    -0.056 A 
HETATM   20  C   UNK N   1      91.971  25.700  47.308  0.00  0.00     0.007 A 
HETATM   21  C   UNK N   1      91.136  25.733  46.191  0.00  0.00     0.001 A 
HETATM   22  C   UNK N   1      91.558  26.366  45.023  0.00  0.00     0.000 A 
HETATM   23  C   UNK N   1      92.816  26.964  44.971  0.00  0.00     0.001 A 
HETATM   24  C   UNK N   1      93.653  26.932  46.087  0.00  0.00     0.007 A 
ENDBRANCH  18  19
ENDBRANCH  16  18
ENDBRANCH   3  16
TORSDOF 10
ENDMDL
MODEL 6
REMARK VINA RESULT:      -6.3      8.410     12.782
REMARK  10 active torsions:
REMARK  status: ('A' for Active; 'I' for Inactive)
REMARK       I    between atoms: C_2  and  N_3 
REMARK    1  A    between atoms: C_2  and  C_4 
REMARK    2  A    between atoms: N_3  and  C_5 
REMARK    3  A    between atoms: C_4  and  N_6 
REMARK    4  A    between atoms: C_4  and  C_7 
REMARK    5  A    between atoms: C_5  and  C_8 
REMARK    6  A    between atoms: C_7  and  C_10 
REMARK    7  A    between atoms: C_8  and  C_11 
REMARK    8  A    between atoms: C_10  and  C_12 
REMARK    9  A    between atoms: C_12  and  C_15 
REMARK   10  A    between atoms: C_15  and  N_18 
ROOT
HETATM    1  O   UNK N   1      81.421  18.154  46.229  0.00  0.00    -0.271 OA
HETATM    2  C   UNK N   1      82.533  18.132  45.710  0.00  0.00     0.251 C 
HETATM    3  N   UNK N   1      83.431  19.175  45.798  0.00  0.00    -0.355 N 
HETATM    4  H   UNK N   1      84.317  19.026  45.317  0.00  0.00     0.162 HD
ENDROOT
BRANCH   2   5
HETATM    5  C   UNK N   1      83.049  16.965  44.830  0.00  0.00     0.309 C 
BRANCH   5   6
HETATM    6  N   UNK N   1      82.849  17.296  43.395  0.00  0.00     0.092 N 
HETATM    7  H   UNK N   1      82.230  18.103  43.327  0.00  0.00     0.313 HD
HETATM    8  H   UNK N   1      82.338  16.523  42.962  0.00  0.00     0.313 HD
ENDBRANCH   5   6
BRANCH   5   9
HETATM    9  C   UNK N   1      84.514  16.643  45.160  0.00  0.00     0.045 C 
BRANCH   9  10
HETATM   10  C   UNK N   1      84.683  15.784  46.419  0.00  0.00     0.004 C 
BRANCH  10  11
HETATM   11  C   UNK N   1      85.695  14.658  46.190  0.00  0.00     0.030 C 
BRANCH  11  12
HETATM   12  C   UNK N   1      86.004  14.485  44.704  0.00  0.00     0.267 C 
BRANCH  12  13
HETATM   13  N   UNK N   1      87.350  14.960  44.408  0.00  0.00     0.078 N 
HETATM   14  H   UNK N   1      87.306  15.723  43.735  0.00  0.00     0.312 HD
HETATM   15  H   UNK N   1      87.767  15.348  45.254  0.00  0.00     0.312 HD
ENDBRANCH  12  13
ENDBRANCH  11  12
ENDBRANCH  10  11
ENDBRANCH   9  10
ENDBRANCH   5   9
ENDBRANCH   2   5
BRANCH   3  16
HETATM   16  C   UNK N   1      83.154  20.413  46.515  0.00  0.00     0.084 C 
HETATM   17  C   UNK N   1      83.855  20.378  47.873  0.00  0.00     0.032 C 
BRANCH  16  18
HETATM   18  C   UNK N   1      83.583  21.629  45.668  0.00  0.00     0.063 C 
BRANCH  18  19
HETATM   19  C   UNK N   1      82.440  22.308  44.953  0.00  0.00    -0.056 A 
HETATM   20  C   UNK N   1      82.038  23.597  45.328  0.00  0.00     0.007 A 
HETATM   21  C   UNK N   1      80.988  24.232  44.665  0.00  0.00     0.001 A 
HETATM   22  C   UNK N   1      80.328  23.585  43.622  0.00  0.00     0.000 A 
HETATM   23  C   UNK N   1      80.717  22.302  43.242  0.00  0.00     0.001 A 
HETATM   24  C   UNK N   1      81.768  21.664  43.904  0.00  0.00     0.007 A 
ENDBRANCH  18  19
ENDBRANCH  16  18
ENDBRANCH   3  16
TORSDOF 10
ENDMDL
MODEL 7
REMARK VINA RESULT:      -6.1      1.900      2.466
REMARK  10 active torsions:
REMARK  status: ('A' for Active; 'I' for Inactive)
REMARK       I    between atoms: C_2  and  N_3 
REMARK    1  A    between atoms: C_2  and  C_4 
REMARK    2  A    between atoms: N_3  and  C_5 
REMARK    3  A    between atoms: C_4  and  N_6 
REMARK    4  A    between atoms: C_4  and  C_7 
REMARK    5  A    between atoms: C_5  and  C_8 
REMARK    6  A    between atoms: C_7  and  C_10 
REMARK    7  A    between atoms: C_8  and  C_11 
REMARK    8  A    between atoms: C_10  and  C_12 
REMARK    9  A    between atoms: C_12  and  C_15 
REMARK   10  A    between atoms: C_15  and  N_18 
ROOT
HETATM    1  O   UNK N   1      92.159  12.776  42.942  0.00  0.00    -0.271 OA
HETATM    2  C   UNK N   1      92.531  13.937  42.808  0.00  0.00     0.251 C 
HETATM    3  N   UNK N   1      92.493  14.612  41.606  0.00  0.00    -0.355 N 
HETATM    4  H   UNK N   1      92.836  15.571  41.636  0.00  0.00     0.162 HD
ENDROOT
BRANCH   2   5
HETATM    5  C   UNK N   1      93.160  14.777  43.950  0.00  0.00     0.309 C 
BRANCH   5   6
HETATM    6  N   UNK N   1      93.456  16.147  43.457  0.00  0.00     0.092 N 
HETATM    7  H   UNK N   1      92.578  16.648  43.329  0.00  0.00     0.313 HD
HETATM    8  H   UNK N   1      93.862  16.065  42.523  0.00  0.00     0.313 HD
ENDBRANCH   5   6
BRANCH   5   9
HETATM    9  C   UNK N   1      92.249  14.781  45.187  0.00  0.00     0.045 C 
BRANCH   9  10
HETATM   10  C   UNK N   1      91.103  15.795  45.099  0.00  0.00     0.004 C 
BRANCH  10  11
HETATM   11  C   UNK N   1      89.797  15.118  44.671  0.00  0.00     0.030 C 
BRANCH  11  12
HETATM   12  C   UNK N   1      89.264  15.718  43.371  0.00  0.00     0.267 C 
BRANCH  12  13
HETATM   13  N   UNK N   1      90.068  16.868  42.977  0.00  0.00     0.078 N 
HETATM   14  H   UNK N   1      89.537  17.726  43.119  0.00  0.00     0.312 HD
HETATM   15  H   UNK N   1      90.885  16.935  43.583  0.00  0.00     0.312 HD
ENDBRANCH  12  13
ENDBRANCH  11  12
ENDBRANCH  10  11
ENDBRANCH   9  10
ENDBRANCH   5   9
ENDBRANCH   2   5
BRANCH   3  16
HETATM   16  C   UNK N   1      92.006  14.017  40.369  0.00  0.00     0.084 C 
HETATM   17  C   UNK N   1      90.653  14.631  40.010  0.00  0.00     0.032 C 
BRANCH  16  18
HETATM   18  C   UNK N   1      93.046  14.199  39.243  0.00  0.00     0.063 C 
BRANCH  18  19
HETATM   19  C   UNK N   1      94.366  13.519  39.517  0.00  0.00    -0.056 A 
HETATM   20  C   UNK N   1      95.423  14.236  40.093  0.00  0.00     0.007 A 
HETATM   21  C   UNK N   1      96.642  13.612  40.356  0.00  0.00     0.001 A 
HETATM   22  C   UNK N   1      96.817  12.265  40.045  0.00  0.00     0.000 A 
HETATM   23  C   UNK N   1      95.774  11.542  39.467  0.00  0.00     0.001 A 
HETATM   24  C   UNK N   1      94.553  12.166  39.204  0.00  0.00     0.007 A 
ENDBRANCH  18  19
ENDBRANCH  16  18
ENDBRANCH   3  16
TORSDOF 10
ENDMDL
MODEL 8
REMARK VINA RESULT:      -6.1      2.016      3.707
REMARK  10 active torsions:
REMARK  status: ('A' for Active; 'I' for Inactive)
REMARK       I    between atoms: C_2  and  N_3 
REMARK    1  A    between atoms: C_2  and  C_4 
REMARK    2  A    between atoms: N_3  and  C_5 
REMARK    3  A    between atoms: C_4  and  N_6 
REMARK    4  A    between atoms: C_4  and  C_7 
REMARK    5  A    between atoms: C_5  and  C_8 
REMARK    6  A    between atoms: C_7  and  C_10 
REMARK    7  A    between atoms: C_8  and  C_11 
REMARK    8  A    between atoms: C_10  and  C_12 
REMARK    9  A    between atoms: C_12  and  C_15 
REMARK   10  A    between atoms: C_15  and  N_18 
ROOT
HETATM    1  O   UNK N   1      92.933  14.971  45.085  0.00  0.00    -0.271 OA
HETATM    2  C   UNK N   1      92.808  15.811  44.199  0.00  0.00     0.251 C 
HETATM    3  N   UNK N   1      93.395  15.695  42.956  0.00  0.00    -0.355 N 
HETATM    4  H   UNK N   1      93.212  16.467  42.317  0.00  0.00     0.162 HD
ENDROOT
BRANCH   2   5
HETATM    5  C   UNK N   1      92.038  17.144  44.380  0.00  0.00     0.309 C 
BRANCH   5   6
HETATM    6  N   UNK N   1      92.890  18.277  43.935  0.00  0.00     0.092 N 
HETATM    7  H   UNK N   1      92.515  18.649  43.063  0.00  0.00     0.313 HD
HETATM    8  H   UNK N   1      93.812  17.904  43.699  0.00  0.00     0.313 HD
ENDBRANCH   5   6
BRANCH   5   9
HETATM    9  C   UNK N   1      90.690  17.097  43.645  0.00  0.00     0.045 C 
BRANCH   9  10
HETATM   10  C   UNK N   1      89.931  15.780  43.843  0.00  0.00     0.004 C 
BRANCH  10  11
HETATM   11  C   UNK N   1      89.094  15.433  42.608  0.00  0.00     0.030 C 
BRANCH  11  12
HETATM   12  C   UNK N   1      89.889  14.579  41.622  0.00  0.00     0.267 C 
BRANCH  12  13
HETATM   13  N   UNK N   1      90.451  15.414  40.569  0.00  0.00     0.078 N 
HETATM   14  H   UNK N   1      91.271  14.960  40.169  0.00  0.00     0.312 HD
HETATM   15  H   UNK N   1      89.777  15.504  39.810  0.00  0.00     0.312 HD
ENDBRANCH  12  13
ENDBRANCH  11  12
ENDBRANCH  10  11
ENDBRANCH   9  10
ENDBRANCH   5   9
ENDBRANCH   2   5
BRANCH   3  16
HETATM   16  C   UNK N   1      94.224  14.564  42.563  0.00  0.00     0.084 C 
HETATM   17  C   UNK N   1      93.358  13.308  42.475  0.00  0.00     0.032 C 
BRANCH  16  18
HETATM   18  C   UNK N   1      94.949  14.868  41.235  0.00  0.00     0.063 C 
BRANCH  18  19
HETATM   19  C   UNK N   1      94.754  13.807  40.178  0.00  0.00    -0.056 A 
HETATM   20  C   UNK N   1      93.697  13.907  39.264  0.00  0.00     0.007 A 
HETATM   21  C   UNK N   1      93.517  12.935  38.281  0.00  0.00     0.001 A 
HETATM   22  C   UNK N   1      94.391  11.853  38.201  0.00  0.00     0.000 A 
HETATM   23  C   UNK N   1      95.444  11.741  39.107  0.00  0.00     0.001 A 
HETATM   24  C   UNK N   1      95.626  12.713  40.093  0.00  0.00     0.007 A 
ENDBRANCH  18  19
ENDBRANCH  16  18
ENDBRANCH   3  16
TORSDOF 10
ENDMDL
MODEL 9
REMARK VINA RESULT:      -6.1      3.609      4.976
REMARK  10 active torsions:
REMARK  status: ('A' for Active; 'I' for Inactive)
REMARK       I    between atoms: C_2  and  N_3 
REMARK    1  A    between atoms: C_2  and  C_4 
REMARK    2  A    between atoms: N_3  and  C_5 
REMARK    3  A    between atoms: C_4  and  N_6 
REMARK    4  A    between atoms: C_4  and  C_7 
REMARK    5  A    between atoms: C_5  and  C_8 
REMARK    6  A    between atoms: C_7  and  C_10 
REMARK    7  A    between atoms: C_8  and  C_11 
REMARK    8  A    between atoms: C_10  and  C_12 
REMARK    9  A    between atoms: C_12  and  C_15 
REMARK   10  A    between atoms: C_15  and  N_18 
ROOT
HETATM    1  O   UNK N   1      89.171  15.073  45.040  0.00  0.00    -0.271 OA
HETATM    2  C   UNK N   1      88.394  15.153  44.094  0.00  0.00     0.251 C 
HETATM    3  N   UNK N   1      88.769  15.585  42.839  0.00  0.00    -0.355 N 
HETATM    4  H   UNK N   1      88.022  15.607  42.147  0.00  0.00     0.162 HD
ENDROOT
BRANCH   2   5
HETATM    5  C   UNK N   1      86.877  14.853  44.199  0.00  0.00     0.309 C 
BRANCH   5   6
HETATM    6  N   UNK N   1      86.528  13.727  43.295  0.00  0.00     0.092 N 
HETATM    7  H   UNK N   1      87.337  13.505  42.717  0.00  0.00     0.313 HD
HETATM    8  H   UNK N   1      85.810  14.055  42.645  0.00  0.00     0.313 HD
ENDBRANCH   5   6
BRANCH   5   9
HETATM    9  C   UNK N   1      86.476  14.582  45.657  0.00  0.00     0.045 C 
BRANCH   9  10
HETATM   10  C   UNK N   1      85.065  15.071  46.005  0.00  0.00     0.004 C 
BRANCH  10  11
HETATM   11  C   UNK N   1      84.705  16.332  45.212  0.00  0.00     0.030 C 
BRANCH  11  12
HETATM   12  C   UNK N   1      84.031  17.372  46.103  0.00  0.00     0.267 C 
BRANCH  12  13
HETATM   13  N   UNK N   1      84.298  17.085  47.507  0.00  0.00     0.078 N 
HETATM   14  H   UNK N   1      84.750  16.176  47.593  0.00  0.00     0.312 HD
HETATM   15  H   UNK N   1      84.958  17.769  47.875  0.00  0.00     0.312 HD
ENDBRANCH  12  13
ENDBRANCH  11  12
ENDBRANCH  10  11
ENDBRANCH   9  10
ENDBRANCH   5   9
ENDBRANCH   2   5
BRANCH   3  16
HETATM   16  C   UNK N   1      90.128  15.990  42.504  0.00  0.00     0.084 C 
HETATM   17  C   UNK N   1      90.622  17.004  43.535  0.00  0.00     0.032 C 
BRANCH  16  18
HETATM   18  C   UNK N   1      91.047  14.754  42.413  0.00  0.00     0.063 C 
BRANCH  18  19
HETATM   19  C   UNK N   1      91.600  14.506  41.030  0.00  0.00    -0.056 A 
HETATM   20  C   UNK N   1      90.825  14.793  39.899  0.00  0.00     0.007 A 
HETATM   21  C   UNK N   1      91.334  14.574  38.618  0.00  0.00     0.001 A 
HETATM   22  C   UNK N   1      92.621  14.064  38.457  0.00  0.00     0.000 A 
HETATM   23  C   UNK N   1      93.399  13.772  39.575  0.00  0.00     0.001 A 
HETATM   24  C   UNK N   1      92.892  13.991  40.857  0.00  0.00     0.007 A 
ENDBRANCH  18  19
ENDBRANCH  16  18
ENDBRANCH   3  16
TORSDOF 10
ENDMDL
