MODEL 1
REMARK VINA RESULT:      -7.2      0.000      0.000
REMARK  9 active torsions:
REMARK  status: ('A' for Active; 'I' for Inactive)
REMARK    1  A    between atoms: C_2  and  O_3 
REMARK    2  A    between atoms: O_3  and  C_5 
REMARK    3  A    between atoms: C_12  and  O_14 
REMARK    4  A    between atoms: O_14  and  C_15 
REMARK    5  A    between atoms: C_15  and  C_16 
REMARK    6  A    between atoms: C_16  and  O_17 
REMARK    7  A    between atoms: C_16  and  C_18 
REMARK    8  A    between atoms: C_18  and  N_19 
REMARK    9  A    between atoms: N_19  and  C_20 
ROOT
HETATM    1  C   UNK N   1      82.376  25.757  37.519  0.00  0.00     0.091 A 
HETATM    2  C   UNK N   1      81.397  25.151  36.711  0.00  0.00    -0.019 A 
HETATM    3  C   UNK N   1      82.358  27.127  37.813  0.00  0.00    -0.025 A 
HETATM    4  C   UNK N   1      80.373  25.965  36.165  0.00  0.00    -0.020 A 
HETATM    5  C   UNK N   1      81.418  23.667  36.454  0.00  0.00     0.052 C 
HETATM    6  C   UNK N   1      81.367  27.921  37.224  0.00  0.00     0.047 A 
HETATM    7  C   UNK N   1      83.402  27.761  38.686  0.00  0.00     0.051 C 
HETATM    8  C   UNK N   1      80.382  27.357  36.405  0.00  0.00     0.075 A 
HETATM    9  C   UNK N   1      79.309  25.363  35.277  0.00  0.00     0.052 C 
ENDROOT
BRANCH   8  10
HETATM   10  O   UNK N   1      79.391  28.076  35.787  0.00  0.00    -0.348 OA
BRANCH  10  11
HETATM   11  C   UNK N   1      79.209  29.443  36.173  0.00  0.00     0.209 C 
BRANCH  11  12
HETATM   12  C   UNK N   1      77.715  29.678  36.432  0.00  0.00     0.170 C 
BRANCH  12  13
HETATM   13  O   UNK N   1      77.488  31.079  36.672  0.00  0.00    -0.392 OA
HETATM   14  H   UNK N   1      76.656  31.299  36.212  0.00  0.00     0.210 HD
ENDBRANCH  12  13
BRANCH  12  15
HETATM   15  C   UNK N   1      76.843  29.226  35.242  0.00  0.00     0.303 C 
BRANCH  15  16
HETATM   16  N   UNK N   1      76.591  30.366  34.347  0.00  0.00     0.089 N 
HETATM   17  H   UNK N   1      77.261  31.101  34.597  0.00  0.00     0.316 HD
BRANCH  16  18
HETATM   18  C   UNK N   1      76.729  30.030  32.926  0.00  0.00     0.212 C 
HETATM   19  C   UNK N   1      75.542  29.215  32.411  0.00  0.00     0.042 C 
HETATM   20  C   UNK N   1      76.843  31.334  32.132  0.00  0.00     0.042 C 
ENDBRANCH  16  18
ENDBRANCH  15  16
ENDBRANCH  12  15
ENDBRANCH  11  12
ENDBRANCH  10  11
ENDBRANCH   8  10
BRANCH   1  21
HETATM   21  O   UNK N   1      83.364  24.957  38.113  0.00  0.00    -0.278 OA
BRANCH  21  22
HETATM   22  C   UNK N   1      84.578  24.979  37.434  0.00  0.00     0.260 C 
HETATM   23  O   UNK N   1      84.806  25.481  36.342  0.00  0.00    -0.265 OA
HETATM   24  C   UNK N   1      85.605  24.272  38.268  0.00  0.00     0.126 C 
ENDBRANCH  21  22
ENDBRANCH   1  21
TORSDOF 9
ENDMDL
MODEL 2
REMARK VINA RESULT:      -6.8     16.742     19.382
REMARK  9 active torsions:
REMARK  status: ('A' for Active; 'I' for Inactive)
REMARK    1  A    between atoms: C_2  and  O_3 
REMARK    2  A    between atoms: O_3  and  C_5 
REMARK    3  A    between atoms: C_12  and  O_14 
REMARK    4  A    between atoms: O_14  and  C_15 
REMARK    5  A    between atoms: C_15  and  C_16 
REMARK    6  A    between atoms: C_16  and  O_17 
REMARK    7  A    between atoms: C_16  and  C_18 
REMARK    8  A    between atoms: C_18  and  N_19 
REMARK    9  A    between atoms: N_19  and  C_20 
ROOT
HETATM    1  C   UNK N   1      93.599  12.312  38.526  0.00  0.00     0.091 A 
HETATM    2  C   UNK N   1      94.293  13.037  39.512  0.00  0.00    -0.019 A 
HETATM    3  C   UNK N   1      92.219  12.451  38.331  0.00  0.00    -0.025 A 
HETATM    4  C   UNK N   1      93.560  13.921  40.342  0.00  0.00    -0.020 A 
HETATM    5  C   UNK N   1      95.785  12.901  39.664  0.00  0.00     0.052 C 
HETATM    6  C   UNK N   1      91.505  13.292  39.194  0.00  0.00     0.047 A 
HETATM    7  C   UNK N   1      91.490  11.681  37.268  0.00  0.00     0.051 C 
HETATM    8  C   UNK N   1      92.159  14.021  40.194  0.00  0.00     0.075 A 
HETATM    9  C   UNK N   1      94.258  14.708  41.426  0.00  0.00     0.052 C 
ENDROOT
BRANCH   8  10
HETATM   10  O   UNK N   1      91.522  14.851  41.080  0.00  0.00    -0.348 OA
BRANCH  10  11
HETATM   11  C   UNK N   1      90.090  14.888  41.060  0.00  0.00     0.209 C 
BRANCH  11  12
HETATM   12  C   UNK N   1      89.578  14.591  42.476  0.00  0.00     0.170 C 
BRANCH  12  13
HETATM   13  O   UNK N   1      90.590  13.876  43.208  0.00  0.00    -0.392 OA
HETATM   14  H   UNK N   1      90.340  12.934  43.161  0.00  0.00     0.210 HD
ENDBRANCH  12  13
BRANCH  12  15
HETATM   15  C   UNK N   1      89.220  15.880  43.245  0.00  0.00     0.303 C 
BRANCH  15  16
HETATM   16  N   UNK N   1      90.205  16.930  42.942  0.00  0.00     0.089 N 
HETATM   17  H   UNK N   1      89.688  17.735  42.572  0.00  0.00     0.316 HD
BRANCH  16  18
HETATM   18  C   UNK N   1      90.994  17.339  44.108  0.00  0.00     0.212 C 
HETATM   19  C   UNK N   1      92.407  16.754  44.081  0.00  0.00     0.042 C 
HETATM   20  C   UNK N   1      91.070  18.868  44.126  0.00  0.00     0.042 C 
ENDBRANCH  16  18
ENDBRANCH  15  16
ENDBRANCH  12  15
ENDBRANCH  11  12
ENDBRANCH  10  11
ENDBRANCH   8  10
BRANCH   1  21
HETATM   21  O   UNK N   1      94.318  11.475  37.659  0.00  0.00    -0.278 OA
BRANCH  21  22
HETATM   22  C   UNK N   1      94.561  10.210  38.183  0.00  0.00     0.260 C 
HETATM   23  O   UNK N   1      93.856   9.584  38.963  0.00  0.00    -0.265 OA
HETATM   24  C   UNK N   1      95.862   9.706  37.631  0.00  0.00     0.126 C 
ENDBRANCH  21  22
ENDBRANCH   1  21
TORSDOF 9
ENDMDL
MODEL 3
REMARK VINA RESULT:      -6.7      4.567      7.692
REMARK  9 active torsions:
REMARK  status: ('A' for Active; 'I' for Inactive)
REMARK    1  A    between atoms: C_2  and  O_3 
REMARK    2  A    between atoms: O_3  and  C_5 
REMARK    3  A    between atoms: C_12  and  O_14 
REMARK    4  A    between atoms: O_14  and  C_15 
REMARK    5  A    between atoms: C_15  and  C_16 
REMARK    6  A    between atoms: C_16  and  O_17 
REMARK    7  A    between atoms: C_16  and  C_18 
REMARK    8  A    between atoms: C_18  and  N_19 
REMARK    9  A    between atoms: N_19  and  C_20 
ROOT
HETATM    1  C   UNK N   1      83.362  26.672  37.958  0.00  0.00     0.091 A 
HETATM    2  C   UNK N   1      81.998  26.804  37.636  0.00  0.00    -0.019 A 
HETATM    3  C   UNK N   1      83.964  25.422  38.154  0.00  0.00    -0.025 A 
HETATM    4  C   UNK N   1      81.213  25.629  37.527  0.00  0.00    -0.020 A 
HETATM    5  C   UNK N   1      81.393  28.160  37.385  0.00  0.00     0.052 C 
HETATM    6  C   UNK N   1      83.160  24.277  38.090  0.00  0.00     0.047 A 
HETATM    7  C   UNK N   1      85.422  25.291  38.486  0.00  0.00     0.051 C 
HETATM    8  C   UNK N   1      81.797  24.370  37.784  0.00  0.00     0.075 A 
HETATM    9  C   UNK N   1      79.741  25.721  37.201  0.00  0.00     0.052 C 
ENDROOT
BRANCH   8  10
HETATM   10  O   UNK N   1      80.950  23.293  37.718  0.00  0.00    -0.348 OA
BRANCH  10  11
HETATM   11  C   UNK N   1      80.448  22.754  38.946  0.00  0.00     0.209 C 
BRANCH  11  12
HETATM   12  C   UNK N   1      80.915  21.297  39.062  0.00  0.00     0.170 C 
BRANCH  12  13
HETATM   13  O   UNK N   1      82.317  21.219  38.746  0.00  0.00    -0.392 OA
HETATM   14  H   UNK N   1      82.735  21.977  39.195  0.00  0.00     0.210 HD
ENDBRANCH  12  13
BRANCH  12  15
HETATM   15  C   UNK N   1      80.688  20.726  40.478  0.00  0.00     0.303 C 
BRANCH  15  16
HETATM   16  N   UNK N   1      79.889  21.672  41.273  0.00  0.00     0.089 N 
HETATM   17  H   UNK N   1      78.903  21.424  41.138  0.00  0.00     0.316 HD
BRANCH  16  18
HETATM   18  C   UNK N   1      80.216  21.649  42.702  0.00  0.00     0.212 C 
HETATM   19  C   UNK N   1      81.516  20.894  42.982  0.00  0.00     0.042 C 
HETATM   20  C   UNK N   1      80.344  23.095  43.190  0.00  0.00     0.042 C 
ENDBRANCH  16  18
ENDBRANCH  15  16
ENDBRANCH  12  15
ENDBRANCH  11  12
ENDBRANCH  10  11
ENDBRANCH   8  10
BRANCH   1  21
HETATM   21  O   UNK N   1      84.167  27.820  38.015  0.00  0.00    -0.278 OA
BRANCH  21  22
HETATM   22  C   UNK N   1      84.160  28.440  39.259  0.00  0.00     0.260 C 
HETATM   23  O   UNK N   1      84.047  27.905  40.353  0.00  0.00    -0.265 OA
HETATM   24  C   UNK N   1      84.321  29.918  39.057  0.00  0.00     0.126 C 
ENDBRANCH  21  22
ENDBRANCH   1  21
TORSDOF 9
ENDMDL
MODEL 4
REMARK VINA RESULT:      -6.6      1.452      2.312
REMARK  9 active torsions:
REMARK  status: ('A' for Active; 'I' for Inactive)
REMARK    1  A    between atoms: C_2  and  O_3 
REMARK    2  A    between atoms: O_3  and  C_5 
REMARK    3  A    between atoms: C_12  and  O_14 
REMARK    4  A    between atoms: O_14  and  C_15 
REMARK    5  A    between atoms: C_15  and  C_16 
REMARK    6  A    between atoms: C_16  and  O_17 
REMARK    7  A    between atoms: C_16  and  C_18 
REMARK    8  A    between atoms: C_18  and  N_19 
REMARK    9  A    between atoms: N_19  and  C_20 
ROOT
HETATM    1  C   UNK N   1      82.309  25.925  37.632  0.00  0.00     0.091 A 
HETATM    2  C   UNK N   1      81.370  25.130  36.951  0.00  0.00    -0.019 A 
HETATM    3  C   UNK N   1      82.184  27.318  37.717  0.00  0.00    -0.025 A 
HETATM    4  C   UNK N   1      80.276  25.770  36.316  0.00  0.00    -0.020 A 
HETATM    5  C   UNK N   1      81.506  23.630  36.919  0.00  0.00     0.052 C 
HETATM    6  C   UNK N   1      81.124  27.935  37.042  0.00  0.00     0.047 A 
HETATM    7  C   UNK N   1      83.186  28.157  38.457  0.00  0.00     0.051 C 
HETATM    8  C   UNK N   1      80.177  27.178  36.343  0.00  0.00     0.075 A 
HETATM    9  C   UNK N   1      79.252  24.960  35.557  0.00  0.00     0.052 C 
ENDROOT
BRANCH   8  10
HETATM   10  O   UNK N   1      79.123  27.716  35.650  0.00  0.00    -0.348 OA
BRANCH  10  11
HETATM   11  C   UNK N   1      79.264  29.044  35.132  0.00  0.00     0.209 C 
BRANCH  11  12
HETATM   12  C   UNK N   1      78.096  29.317  34.174  0.00  0.00     0.170 C 
BRANCH  12  13
HETATM   13  O   UNK N   1      77.850  28.144  33.378  0.00  0.00    -0.392 OA
HETATM   14  H   UNK N   1      76.894  27.963  33.454  0.00  0.00     0.210 HD
ENDBRANCH  12  13
BRANCH  12  15
HETATM   15  C   UNK N   1      76.803  29.691  34.929  0.00  0.00     0.303 C 
BRANCH  15  16
HETATM   16  N   UNK N   1      77.140  30.246  36.249  0.00  0.00     0.089 N 
HETATM   17  H   UNK N   1      76.844  31.228  36.250  0.00  0.00     0.316 HD
BRANCH  16  18
HETATM   18  C   UNK N   1      76.500  29.533  37.359  0.00  0.00     0.212 C 
HETATM   19  C   UNK N   1      75.832  28.236  36.900  0.00  0.00     0.042 C 
HETATM   20  C   UNK N   1      77.569  29.219  38.409  0.00  0.00     0.042 C 
ENDBRANCH  16  18
ENDBRANCH  15  16
ENDBRANCH  12  15
ENDBRANCH  11  12
ENDBRANCH  10  11
ENDBRANCH   8  10
BRANCH   1  21
HETATM   21  O   UNK N   1      83.366  25.304  38.314  0.00  0.00    -0.278 OA
BRANCH  21  22
HETATM   22  C   UNK N   1      84.520  25.176  37.548  0.00  0.00     0.260 C 
HETATM   23  O   UNK N   1      84.729  25.649  36.439  0.00  0.00    -0.265 OA
HETATM   24  C   UNK N   1      85.508  24.341  38.308  0.00  0.00     0.126 C 
ENDBRANCH  21  22
ENDBRANCH   1  21
TORSDOF 9
ENDMDL
MODEL 5
REMARK VINA RESULT:      -6.6      8.956     12.073
REMARK  9 active torsions:
REMARK  status: ('A' for Active; 'I' for Inactive)
REMARK    1  A    between atoms: C_2  and  O_3 
REMARK    2  A    between atoms: O_3  and  C_5 
REMARK    3  A    between atoms: C_12  and  O_14 
REMARK    4  A    between atoms: O_14  and  C_15 
REMARK    5  A    between atoms: C_15  and  C_16 
REMARK    6  A    between atoms: C_16  and  O_17 
REMARK    7  A    between atoms: C_16  and  C_18 
REMARK    8  A    between atoms: C_18  and  N_19 
REMARK    9  A    between atoms: N_19  and  C_20 
ROOT
HETATM    1  C   UNK N   1      80.483  24.808  44.752  0.00  0.00     0.091 A 
HETATM    2  C   UNK N   1      81.609  24.246  45.382  0.00  0.00    -0.019 A 
HETATM    3  C   UNK N   1      79.805  24.153  43.715  0.00  0.00    -0.025 A 
HETATM    4  C   UNK N   1      82.075  22.986  44.935  0.00  0.00    -0.020 A 
HETATM    5  C   UNK N   1      82.286  24.955  46.526  0.00  0.00     0.052 C 
HETATM    6  C   UNK N   1      80.311  22.931  43.255  0.00  0.00     0.047 A 
HETATM    7  C   UNK N   1      78.598  24.756  43.057  0.00  0.00     0.051 C 
HETATM    8  C   UNK N   1      81.436  22.347  43.850  0.00  0.00     0.075 A 
HETATM    9  C   UNK N   1      83.290  22.350  45.569  0.00  0.00     0.052 C 
ENDROOT
BRANCH   8  10
HETATM   10  O   UNK N   1      81.992  21.162  43.442  0.00  0.00    -0.348 OA
BRANCH  10  11
HETATM   11  C   UNK N   1      81.399  20.488  42.325  0.00  0.00     0.209 C 
BRANCH  11  12
HETATM   12  C   UNK N   1      81.365  18.984  42.631  0.00  0.00     0.170 C 
BRANCH  12  13
HETATM   13  O   UNK N   1      82.615  18.389  42.237  0.00  0.00    -0.392 OA
HETATM   14  H   UNK N   1      82.712  18.573  41.284  0.00  0.00     0.210 HD
ENDBRANCH  12  13
BRANCH  12  15
HETATM   15  C   UNK N   1      81.125  18.702  44.129  0.00  0.00     0.303 C 
BRANCH  15  16
HETATM   16  N   UNK N   1      82.410  18.449  44.799  0.00  0.00     0.089 N 
HETATM   17  H   UNK N   1      83.082  19.134  44.437  0.00  0.00     0.316 HD
BRANCH  16  18
HETATM   18  C   UNK N   1      82.332  18.554  46.260  0.00  0.00     0.212 C 
HETATM   19  C   UNK N   1      83.643  19.052  46.871  0.00  0.00     0.042 C 
HETATM   20  C   UNK N   1      81.199  19.521  46.614  0.00  0.00     0.042 C 
ENDBRANCH  16  18
ENDBRANCH  15  16
ENDBRANCH  12  15
ENDBRANCH  11  12
ENDBRANCH  10  11
ENDBRANCH   8  10
BRANCH   1  21
HETATM   21  O   UNK N   1      79.974  26.029  45.219  0.00  0.00    -0.278 OA
BRANCH  21  22
HETATM   22  C   UNK N   1      80.656  27.138  44.731  0.00  0.00     0.260 C 
HETATM   23  O   UNK N   1      81.471  27.163  43.819  0.00  0.00    -0.265 OA
HETATM   24  C   UNK N   1      80.232  28.344  45.516  0.00  0.00     0.126 C 
ENDBRANCH  21  22
ENDBRANCH   1  21
TORSDOF 9
ENDMDL
MODEL 6
REMARK VINA RESULT:      -6.5     27.995     30.254
REMARK  9 active torsions:
REMARK  status: ('A' for Active; 'I' for Inactive)
REMARK    1  A    between atoms: C_2  and  O_3 
REMARK    2  A    between atoms: O_3  and  C_5 
REMARK    3  A    between atoms: C_12  and  O_14 
REMARK    4  A    between atoms: O_14  and  C_15 
REMARK    5  A    between atoms: C_15  and  C_16 
REMARK    6  A    between atoms: C_16  and  O_17 
REMARK    7  A    between atoms: C_16  and  C_18 
REMARK    8  A    between atoms: C_18  and  N_19 
REMARK    9  A    between atoms: N_19  and  C_20 
ROOT
HETATM    1  C   UNK N   1      74.912   6.555  16.055  0.00  0.00     0.091 A 
HETATM    2  C   UNK N   1      75.784   7.622  15.771  0.00  0.00    -0.019 A 
HETATM    3  C   UNK N   1      75.261   5.520  16.932  0.00  0.00    -0.025 A 
HETATM    4  C   UNK N   1      77.063   7.631  16.381  0.00  0.00    -0.020 A 
HETATM    5  C   UNK N   1      75.359   8.745  14.861  0.00  0.00     0.052 C 
HETATM    6  C   UNK N   1      76.547   5.521  17.486  0.00  0.00     0.047 A 
HETATM    7  C   UNK N   1      74.319   4.392  17.237  0.00  0.00     0.051 C 
HETATM    8  C   UNK N   1      77.447   6.559  17.217  0.00  0.00     0.075 A 
HETATM    9  C   UNK N   1      78.040   8.746  16.093  0.00  0.00     0.052 C 
ENDROOT
BRANCH   8  10
HETATM   10  O   UNK N   1      78.724   6.618  17.715  0.00  0.00    -0.348 OA
BRANCH  10  11
HETATM   11  C   UNK N   1      79.406   5.384  17.967  0.00  0.00     0.209 C 
BRANCH  11  12
HETATM   12  C   UNK N   1      80.743   5.407  17.214  0.00  0.00     0.170 C 
BRANCH  12  13
HETATM   13  O   UNK N   1      81.605   4.383  17.743  0.00  0.00    -0.392 OA
HETATM   14  H   UNK N   1      81.214   3.533  17.464  0.00  0.00     0.210 HD
ENDBRANCH  12  13
BRANCH  12  15
HETATM   15  C   UNK N   1      80.559   5.175  15.699  0.00  0.00     0.303 C 
BRANCH  15  16
HETATM   16  N   UNK N   1      80.431   6.468  15.010  0.00  0.00     0.089 N 
HETATM   17  H   UNK N   1      81.320   6.966  15.130  0.00  0.00     0.316 HD
BRANCH  16  18
HETATM   18  C   UNK N   1      80.124   6.336  13.582  0.00  0.00     0.212 C 
HETATM   19  C   UNK N   1      78.622   6.210  13.326  0.00  0.00     0.042 C 
HETATM   20  C   UNK N   1      80.669   7.569  12.856  0.00  0.00     0.042 C 
ENDBRANCH  16  18
ENDBRANCH  15  16
ENDBRANCH  12  15
ENDBRANCH  11  12
ENDBRANCH  10  11
ENDBRANCH   8  10
BRANCH   1  21
HETATM   21  O   UNK N   1      73.622   6.560  15.503  0.00  0.00    -0.278 OA
BRANCH  21  22
HETATM   22  C   UNK N   1      73.519   5.825  14.327  0.00  0.00     0.260 C 
HETATM   23  O   UNK N   1      74.242   5.898  13.343  0.00  0.00    -0.265 OA
HETATM   24  C   UNK N   1      72.348   4.894  14.446  0.00  0.00     0.126 C 
ENDBRANCH  21  22
ENDBRANCH   1  21
TORSDOF 9
ENDMDL
MODEL 7
REMARK VINA RESULT:      -6.5     17.187     18.512
REMARK  9 active torsions:
REMARK  status: ('A' for Active; 'I' for Inactive)
REMARK    1  A    between atoms: C_2  and  O_3 
REMARK    2  A    between atoms: O_3  and  C_5 
REMARK    3  A    between atoms: C_12  and  O_14 
REMARK    4  A    between atoms: O_14  and  C_15 
REMARK    5  A    between atoms: C_15  and  C_16 
REMARK    6  A    between atoms: C_16  and  O_17 
REMARK    7  A    between atoms: C_16  and  C_18 
REMARK    8  A    between atoms: C_18  and  N_19 
REMARK    9  A    between atoms: N_19  and  C_20 
ROOT
HETATM    1  C   UNK N   1      89.324  13.738  39.517  0.00  0.00     0.091 A 
HETATM    2  C   UNK N   1      88.398  13.512  40.551  0.00  0.00    -0.019 A 
HETATM    3  C   UNK N   1      90.454  14.549  39.691  0.00  0.00    -0.025 A 
HETATM    4  C   UNK N   1      88.613  14.145  41.801  0.00  0.00    -0.020 A 
HETATM    5  C   UNK N   1      87.220  12.596  40.346  0.00  0.00     0.052 C 
HETATM    6  C   UNK N   1      90.621  15.204  40.917  0.00  0.00     0.047 A 
HETATM    7  C   UNK N   1      91.442  14.774  38.583  0.00  0.00     0.051 C 
HETATM    8  C   UNK N   1      89.714  15.013  41.966  0.00  0.00     0.075 A 
HETATM    9  C   UNK N   1      87.637  13.947  42.936  0.00  0.00     0.052 C 
ENDROOT
BRANCH   8  10
HETATM   10  O   UNK N   1      89.810  15.632  43.186  0.00  0.00    -0.348 OA
BRANCH  10  11
HETATM   11  C   UNK N   1      90.800  16.655  43.348  0.00  0.00     0.209 C 
BRANCH  11  12
HETATM   12  C   UNK N   1      91.477  16.462  44.712  0.00  0.00     0.170 C 
BRANCH  12  13
HETATM   13  O   UNK N   1      90.507  15.981  45.661  0.00  0.00    -0.392 OA
HETATM   14  H   UNK N   1      89.720  15.735  45.139  0.00  0.00     0.210 HD
ENDBRANCH  12  13
BRANCH  12  15
HETATM   15  C   UNK N   1      92.649  15.461  44.641  0.00  0.00     0.303 C 
BRANCH  15  16
HETATM   16  N   UNK N   1      93.455  15.723  43.439  0.00  0.00     0.089 N 
HETATM   17  H   UNK N   1      94.161  16.422  43.693  0.00  0.00     0.316 HD
BRANCH  16  18
HETATM   18  C   UNK N   1      94.112  14.524  42.908  0.00  0.00     0.212 C 
HETATM   19  C   UNK N   1      93.152  13.337  42.815  0.00  0.00     0.042 C 
HETATM   20  C   UNK N   1      94.663  14.852  41.518  0.00  0.00     0.042 C 
ENDBRANCH  16  18
ENDBRANCH  15  16
ENDBRANCH  12  15
ENDBRANCH  11  12
ENDBRANCH  10  11
ENDBRANCH   8  10
BRANCH   1  21
HETATM   21  O   UNK N   1      89.158  13.075  38.291  0.00  0.00    -0.278 OA
BRANCH  21  22
HETATM   22  C   UNK N   1      89.725  11.805  38.266  0.00  0.00     0.260 C 
HETATM   23  O   UNK N   1      90.517  11.332  39.069  0.00  0.00    -0.265 OA
HETATM   24  C   UNK N   1      89.203  11.072  37.065  0.00  0.00     0.126 C 
ENDBRANCH  21  22
ENDBRANCH   1  21
TORSDOF 9
ENDMDL
MODEL 8
REMARK VINA RESULT:      -6.4     16.645     18.389
REMARK  9 active torsions:
REMARK  status: ('A' for Active; 'I' for Inactive)
REMARK    1  A    between atoms: C_2  and  O_3 
REMARK    2  A    between atoms: O_3  and  C_5 
REMARK    3  A    between atoms: C_12  and  O_14 
REMARK    4  A    between atoms: O_14  and  C_15 
REMARK    5  A    between atoms: C_15  and  C_16 
REMARK    6  A    between atoms: C_16  and  O_17 
REMARK    7  A    between atoms: C_16  and  C_18 
REMARK    8  A    between atoms: C_18  and  N_19 
REMARK    9  A    between atoms: N_19  and  C_20 
ROOT
HETATM    1  C   UNK N   1      92.856  14.278  40.501  0.00  0.00     0.091 A 
HETATM    2  C   UNK N   1      93.294  14.587  41.801  0.00  0.00    -0.019 A 
HETATM    3  C   UNK N   1      91.571  14.608  40.049  0.00  0.00    -0.025 A 
HETATM    4  C   UNK N   1      92.394  15.236  42.682  0.00  0.00    -0.020 A 
HETATM    5  C   UNK N   1      94.698  14.262  42.240  0.00  0.00     0.052 C 
HETATM    6  C   UNK N   1      90.681  15.205  40.950  0.00  0.00     0.047 A 
HETATM    7  C   UNK N   1      91.117  14.284  38.655  0.00  0.00     0.051 C 
HETATM    8  C   UNK N   1      91.077  15.516  42.256  0.00  0.00     0.075 A 
HETATM    9  C   UNK N   1      92.814  15.573  44.093  0.00  0.00     0.052 C 
ENDROOT
BRANCH   8  10
HETATM   10  O   UNK N   1      90.255  16.088  43.193  0.00  0.00    -0.348 OA
BRANCH  10  11
HETATM   11  C   UNK N   1      88.895  15.642  43.259  0.00  0.00     0.209 C 
BRANCH  11  12
HETATM   12  C   UNK N   1      88.849  14.350  44.086  0.00  0.00     0.170 C 
BRANCH  12  13
HETATM   13  O   UNK N   1      88.426  14.658  45.427  0.00  0.00    -0.392 OA
HETATM   14  H   UNK N   1      89.101  15.263  45.789  0.00  0.00     0.210 HD
ENDBRANCH  12  13
BRANCH  12  15
HETATM   15  C   UNK N   1      87.882  13.309  43.482  0.00  0.00     0.303 C 
BRANCH  15  16
HETATM   16  N   UNK N   1      87.415  13.770  42.165  0.00  0.00     0.089 N 
HETATM   17  H   UNK N   1      87.919  14.637  41.950  0.00  0.00     0.316 HD
BRANCH  16  18
HETATM   18  C   UNK N   1      87.633  12.790  41.096  0.00  0.00     0.212 C 
HETATM   19  C   UNK N   1      86.548  11.713  41.075  0.00  0.00     0.042 C 
HETATM   20  C   UNK N   1      87.649  13.533  39.758  0.00  0.00     0.042 C 
ENDBRANCH  16  18
ENDBRANCH  15  16
ENDBRANCH  12  15
ENDBRANCH  11  12
ENDBRANCH  10  11
ENDBRANCH   8  10
BRANCH   1  21
HETATM   21  O   UNK N   1      93.752  13.687  39.598  0.00  0.00    -0.278 OA
BRANCH  21  22
HETATM   22  C   UNK N   1      93.771  12.298  39.665  0.00  0.00     0.260 C 
HETATM   23  O   UNK N   1      92.921  11.569  40.157  0.00  0.00    -0.265 OA
HETATM   24  C   UNK N   1      95.033  11.805  39.020  0.00  0.00     0.126 C 
ENDBRANCH  21  22
ENDBRANCH   1  21
TORSDOF 9
ENDMDL
MODEL 9
REMARK VINA RESULT:      -6.3     15.983     18.185
REMARK  9 active torsions:
REMARK  status: ('A' for Active; 'I' for Inactive)
REMARK    1  A    between atoms: C_2  and  O_3 
REMARK    2  A    between atoms: O_3  and  C_5 
REMARK    3  A    between atoms: C_12  and  O_14 
REMARK    4  A    between atoms: O_14  and  C_15 
REMARK    5  A    between atoms: C_15  and  C_16 
REMARK    6  A    between atoms: C_16  and  O_17 
REMARK    7  A    between atoms: C_16  and  C_18 
REMARK    8  A    between atoms: C_18  and  N_19 
REMARK    9  A    between atoms: N_19  and  C_20 
ROOT
HETATM    1  C   UNK N   1      92.679  14.222  40.470  0.00  0.00     0.091 A 
HETATM    2  C   UNK N   1      93.141  14.573  41.752  0.00  0.00    -0.019 A 
HETATM    3  C   UNK N   1      91.381  14.525  40.037  0.00  0.00    -0.025 A 
HETATM    4  C   UNK N   1      92.252  15.238  42.633  0.00  0.00    -0.020 A 
HETATM    5  C   UNK N   1      94.558  14.276  42.169  0.00  0.00     0.052 C 
HETATM    6  C   UNK N   1      90.503  15.137  40.940  0.00  0.00     0.047 A 
HETATM    7  C   UNK N   1      90.901  14.156  38.663  0.00  0.00     0.051 C 
HETATM    8  C   UNK N   1      90.924  15.491  42.227  0.00  0.00     0.075 A 
HETATM    9  C   UNK N   1      92.698  15.619  44.025  0.00  0.00     0.052 C 
ENDROOT
BRANCH   8  10
HETATM   10  O   UNK N   1      90.115  16.081  43.165  0.00  0.00    -0.348 OA
BRANCH  10  11
HETATM   11  C   UNK N   1      88.815  15.520  43.382  0.00  0.00     0.209 C 
BRANCH  11  12
HETATM   12  C   UNK N   1      88.904  14.528  44.550  0.00  0.00     0.170 C 
BRANCH  12  13
HETATM   13  O   UNK N   1      89.655  15.124  45.624  0.00  0.00    -0.392 OA
HETATM   14  H   UNK N   1      89.192  15.953  45.848  0.00  0.00     0.210 HD
ENDBRANCH  12  13
BRANCH  12  15
HETATM   15  C   UNK N   1      87.510  14.125  45.076  0.00  0.00     0.303 C 
BRANCH  15  16
HETATM   16  N   UNK N   1      86.468  14.828  44.312  0.00  0.00     0.089 N 
HETATM   17  H   UNK N   1      86.383  14.353  43.407  0.00  0.00     0.316 HD
BRANCH  16  18
HETATM   18  C   UNK N   1      85.166  14.847  44.987  0.00  0.00     0.212 C 
HETATM   19  C   UNK N   1      84.710  16.269  45.314  0.00  0.00     0.042 C 
HETATM   20  C   UNK N   1      84.140  14.172  44.073  0.00  0.00     0.042 C 
ENDBRANCH  16  18
ENDBRANCH  15  16
ENDBRANCH  12  15
ENDBRANCH  11  12
ENDBRANCH  10  11
ENDBRANCH   8  10
BRANCH   1  21
HETATM   21  O   UNK N   1      93.562  13.614  39.565  0.00  0.00    -0.278 OA
BRANCH  21  22
HETATM   22  C   UNK N   1      93.475  12.227  39.552  0.00  0.00     0.260 C 
HETATM   23  O   UNK N   1      92.976  11.508  40.407  0.00  0.00    -0.265 OA
HETATM   24  C   UNK N   1      94.105  11.720  38.289  0.00  0.00     0.126 C 
ENDBRANCH  21  22
ENDBRANCH   1  21
TORSDOF 9
ENDMDL
