MODEL 1
REMARK VINA RESULT:      -7.4      0.000      0.000
REMARK  6 active torsions:
REMARK  status: ('A' for Active; 'I' for Inactive)
REMARK    1  A    between atoms: N_2  and  C_4 
REMARK    2  A    between atoms: C_5  and  C_8 
REMARK    3  A    between atoms: C_8  and  O_11 
REMARK    4  A    between atoms: C_14  and  C_16 
REMARK    5  A    between atoms: C_16  and  N_17 
REMARK    6  A    between atoms: N_17  and  C_18 
ROOT
HETATM    1  C   UNK N   1      93.408  26.270  46.058  0.00  0.00     0.113 A 
HETATM    2  C   UNK N   1      93.132  25.324  47.061  0.00  0.00    -0.001 A 
HETATM    3  C   UNK N   1      94.671  26.869  45.926  0.00  0.00     0.066 A 
HETATM    4  C   UNK N   1      94.196  24.965  47.904  0.00  0.00     0.021 A 
HETATM    5  C   UNK N   1      95.707  26.532  46.798  0.00  0.00     0.037 A 
HETATM    6  C   UNK N   1      95.471  25.544  47.766  0.00  0.00    -0.031 A 
HETATM    7  N   UNK N   1      96.960  27.098  46.625  0.00  0.00    -0.383 N 
HETATM    8  C   UNK N   1      96.573  25.141  48.714  0.00  0.00     0.043 C 
HETATM    9  C   UNK N   1      98.031  26.843  47.593  0.00  0.00     0.110 C 
HETATM   10  C   UNK N   1      97.946  25.402  48.105  0.00  0.00     0.031 C 
HETATM   11  H   UNK N   1      97.004  27.992  46.148  0.00  0.00     0.160 HD
ENDROOT
BRANCH   9  12
HETATM   12  C   UNK N   1      99.422  27.091  46.946  0.00  0.00     0.295 C 
BRANCH  12  13
HETATM   13  N   UNK N   1     100.042  25.848  46.449  0.00  0.00     0.089 N 
HETATM   14  H   UNK N   1     101.036  25.900  46.679  0.00  0.00     0.316 HD
BRANCH  13  15
HETATM   15  C   UNK N   1      99.914  25.702  44.990  0.00  0.00     0.212 C 
HETATM   16  C   UNK N   1     101.319  25.674  44.381  0.00  0.00     0.042 C 
HETATM   17  C   UNK N   1      99.170  24.418  44.618  0.00  0.00     0.042 C 
ENDBRANCH  13  15
ENDBRANCH  12  13
ENDBRANCH   9  12
BRANCH   1  18
HETATM   18  N   UNK N   1      92.387  26.664  45.093  0.00  0.00    -0.115 N 
HETATM   19  O   UNK N   1      91.206  26.652  45.469  0.00  0.00    -0.532 OA
HETATM   20  O   UNK N   1      92.768  26.977  43.957  0.00  0.00    -0.532 OA
ENDBRANCH   1  18
BRANCH   2  21
HETATM   21  C   UNK N   1      91.775  24.680  47.219  0.00  0.00     0.205 C 
BRANCH  21  22
HETATM   22  O   UNK N   1      91.588  23.625  46.281  0.00  0.00    -0.396 OA
HETATM   23  H   UNK N   1      91.693  24.021  45.398  0.00  0.00     0.209 HD
ENDBRANCH  21  22
ENDBRANCH   2  21
TORSDOF 6
ENDMDL
MODEL 2
REMARK VINA RESULT:      -7.4     10.996     12.301
REMARK  6 active torsions:
REMARK  status: ('A' for Active; 'I' for Inactive)
REMARK    1  A    between atoms: N_2  and  C_4 
REMARK    2  A    between atoms: C_5  and  C_8 
REMARK    3  A    between atoms: C_8  and  O_11 
REMARK    4  A    between atoms: C_14  and  C_16 
REMARK    5  A    between atoms: C_16  and  N_17 
REMARK    6  A    between atoms: N_17  and  C_18 
ROOT
HETATM    1  C   UNK N   1      91.252  15.966  43.723  0.00  0.00     0.113 A 
HETATM    2  C   UNK N   1      90.164  15.445  43.000  0.00  0.00    -0.001 A 
HETATM    3  C   UNK N   1      92.583  15.716  43.352  0.00  0.00     0.066 A 
HETATM    4  C   UNK N   1      90.468  14.696  41.852  0.00  0.00     0.021 A 
HETATM    5  C   UNK N   1      92.868  14.936  42.232  0.00  0.00     0.037 A 
HETATM    6  C   UNK N   1      91.798  14.458  41.458  0.00  0.00    -0.031 A 
HETATM    7  N   UNK N   1      94.186  14.737  41.852  0.00  0.00    -0.383 N 
HETATM    8  C   UNK N   1      92.069  13.626  40.230  0.00  0.00     0.043 C 
HETATM    9  C   UNK N   1      94.513  13.833  40.746  0.00  0.00     0.110 C 
HETATM   10  C   UNK N   1      93.446  13.932  39.651  0.00  0.00     0.031 C 
HETATM   11  H   UNK N   1      94.895  14.823  42.573  0.00  0.00     0.160 HD
ENDROOT
BRANCH   9  12
HETATM   12  C   UNK N   1      95.908  14.176  40.154  0.00  0.00     0.295 C 
BRANCH  12  13
HETATM   13  N   UNK N   1      96.826  14.737  41.164  0.00  0.00     0.089 N 
HETATM   14  H   UNK N   1      97.188  15.612  40.783  0.00  0.00     0.316 HD
BRANCH  13  15
HETATM   15  C   UNK N   1      97.966  13.848  41.440  0.00  0.00     0.212 C 
HETATM   16  C   UNK N   1      99.252  14.679  41.389  0.00  0.00     0.042 C 
HETATM   17  C   UNK N   1      97.841  13.185  42.813  0.00  0.00     0.042 C 
ENDBRANCH  13  15
ENDBRANCH  12  13
ENDBRANCH   9  12
BRANCH   1  18
HETATM   18  N   UNK N   1      91.041  16.809  44.897  0.00  0.00    -0.115 N 
HETATM   19  O   UNK N   1      91.136  18.036  44.746  0.00  0.00    -0.532 OA
HETATM   20  O   UNK N   1      90.790  16.241  45.967  0.00  0.00    -0.532 OA
ENDBRANCH   1  18
BRANCH   2  21
HETATM   21  C   UNK N   1      88.729  15.699  43.395  0.00  0.00     0.205 C 
BRANCH  21  22
HETATM   22  O   UNK N   1      88.419  15.089  44.644  0.00  0.00    -0.396 OA
HETATM   23  H   UNK N   1      87.721  14.434  44.464  0.00  0.00     0.209 HD
ENDBRANCH  21  22
ENDBRANCH   2  21
TORSDOF 6
ENDMDL
MODEL 3
REMARK VINA RESULT:      -7.2     14.580     15.452
REMARK  6 active torsions:
REMARK  status: ('A' for Active; 'I' for Inactive)
REMARK    1  A    between atoms: N_2  and  C_4 
REMARK    2  A    between atoms: C_5  and  C_8 
REMARK    3  A    between atoms: C_8  and  O_11 
REMARK    4  A    between atoms: C_14  and  C_16 
REMARK    5  A    between atoms: C_16  and  N_17 
REMARK    6  A    between atoms: N_17  and  C_18 
ROOT
HETATM    1  C   UNK N   1      84.987  15.813  46.012  0.00  0.00     0.113 A 
HETATM    2  C   UNK N   1      84.872  15.515  47.381  0.00  0.00    -0.001 A 
HETATM    3  C   UNK N   1      84.421  16.969  45.450  0.00  0.00     0.066 A 
HETATM    4  C   UNK N   1      84.201  16.456  48.180  0.00  0.00     0.021 A 
HETATM    5  C   UNK N   1      83.723  17.873  46.250  0.00  0.00     0.037 A 
HETATM    6  C   UNK N   1      83.650  17.628  47.630  0.00  0.00    -0.031 A 
HETATM    7  N   UNK N   1      83.210  19.032  45.688  0.00  0.00    -0.383 N 
HETATM    8  C   UNK N   1      82.918  18.593  48.529  0.00  0.00     0.043 C 
HETATM    9  C   UNK N   1      82.381  19.941  46.485  0.00  0.00     0.110 C 
HETATM   10  C   UNK N   1      82.893  19.994  47.928  0.00  0.00     0.031 C 
HETATM   11  H   UNK N   1      83.015  19.019  44.694  0.00  0.00     0.160 HD
ENDROOT
BRANCH   9  12
HETATM   12  C   UNK N   1      82.388  21.367  45.871  0.00  0.00     0.295 C 
BRANCH  12  13
HETATM   13  N   UNK N   1      82.591  21.351  44.409  0.00  0.00     0.089 N 
HETATM   14  H   UNK N   1      83.036  22.235  44.161  0.00  0.00     0.316 HD
BRANCH  13  15
HETATM   15  C   UNK N   1      81.324  21.248  43.668  0.00  0.00     0.212 C 
HETATM   16  C   UNK N   1      80.771  22.660  43.456  0.00  0.00     0.042 C 
HETATM   17  C   UNK N   1      81.521  20.569  42.312  0.00  0.00     0.042 C 
ENDBRANCH  13  15
ENDBRANCH  12  13
ENDBRANCH   9  12
BRANCH   1  18
HETATM   18  N   UNK N   1      85.718  14.930  45.107  0.00  0.00    -0.115 N 
HETATM   19  O   UNK N   1      85.060  14.112  44.448  0.00  0.00    -0.532 OA
HETATM   20  O   UNK N   1      86.949  15.052  45.065  0.00  0.00    -0.532 OA
ENDBRANCH   1  18
BRANCH   2  21
HETATM   21  C   UNK N   1      85.467  14.270  47.995  0.00  0.00     0.205 C 
BRANCH  21  22
HETATM   22  O   UNK N   1      86.885  14.366  48.091  0.00  0.00    -0.396 OA
HETATM   23  H   UNK N   1      87.122  14.043  48.977  0.00  0.00     0.209 HD
ENDBRANCH  21  22
ENDBRANCH   2  21
TORSDOF 6
ENDMDL
MODEL 4
REMARK VINA RESULT:      -7.2     13.476     15.721
REMARK  6 active torsions:
REMARK  status: ('A' for Active; 'I' for Inactive)
REMARK    1  A    between atoms: N_2  and  C_4 
REMARK    2  A    between atoms: C_5  and  C_8 
REMARK    3  A    between atoms: C_8  and  O_11 
REMARK    4  A    between atoms: C_14  and  C_16 
REMARK    5  A    between atoms: C_16  and  N_17 
REMARK    6  A    between atoms: N_17  and  C_18 
ROOT
HETATM    1  C   UNK N   1      89.108  15.002  43.175  0.00  0.00     0.113 A 
HETATM    2  C   UNK N   1      90.155  15.895  42.888  0.00  0.00    -0.001 A 
HETATM    3  C   UNK N   1      88.604  14.110  42.215  0.00  0.00     0.066 A 
HETATM    4  C   UNK N   1      90.714  15.823  41.602  0.00  0.00     0.021 A 
HETATM    5  C   UNK N   1      89.143  14.079  40.929  0.00  0.00     0.037 A 
HETATM    6  C   UNK N   1      90.231  14.917  40.639  0.00  0.00    -0.031 A 
HETATM    7  N   UNK N   1      88.666  13.160  40.007  0.00  0.00    -0.383 N 
HETATM    8  C   UNK N   1      90.851  14.898  39.264  0.00  0.00     0.043 C 
HETATM    9  C   UNK N   1      89.140  13.184  38.620  0.00  0.00     0.110 C 
HETATM   10  C   UNK N   1      90.625  13.556  38.577  0.00  0.00     0.031 C 
HETATM   11  H   UNK N   1      87.722  12.815  40.142  0.00  0.00     0.160 HD
ENDROOT
BRANCH   9  12
HETATM   12  C   UNK N   1      88.924  11.801  37.946  0.00  0.00     0.295 C 
BRANCH  12  13
HETATM   13  N   UNK N   1      88.510  11.921  36.534  0.00  0.00     0.089 N 
HETATM   14  H   UNK N   1      87.552  12.275  36.535  0.00  0.00     0.316 HD
BRANCH  13  15
HETATM   15  C   UNK N   1      88.524  10.627  35.835  0.00  0.00     0.212 C 
HETATM   16  C   UNK N   1      88.086  10.855  34.385  0.00  0.00     0.042 C 
HETATM   17  C   UNK N   1      89.916   9.994  35.853  0.00  0.00     0.042 C 
ENDBRANCH  13  15
ENDBRANCH  12  13
ENDBRANCH   9  12
BRANCH   1  18
HETATM   18  N   UNK N   1      88.501  14.955  44.502  0.00  0.00    -0.115 N 
HETATM   19  O   UNK N   1      89.209  14.572  45.444  0.00  0.00    -0.532 OA
HETATM   20  O   UNK N   1      87.314  15.293  44.597  0.00  0.00    -0.532 OA
ENDBRANCH   1  18
BRANCH   2  21
HETATM   21  C   UNK N   1      90.698  16.866  43.910  0.00  0.00     0.205 C 
BRANCH  21  22
HETATM   22  O   UNK N   1      90.442  18.214  43.531  0.00  0.00    -0.396 OA
HETATM   23  H   UNK N   1      90.171  18.681  44.341  0.00  0.00     0.209 HD
ENDBRANCH  21  22
ENDBRANCH   2  21
TORSDOF 6
ENDMDL
MODEL 5
REMARK VINA RESULT:      -7.2     14.692     15.625
REMARK  6 active torsions:
REMARK  status: ('A' for Active; 'I' for Inactive)
REMARK    1  A    between atoms: N_2  and  C_4 
REMARK    2  A    between atoms: C_5  and  C_8 
REMARK    3  A    between atoms: C_8  and  O_11 
REMARK    4  A    between atoms: C_14  and  C_16 
REMARK    5  A    between atoms: C_16  and  N_17 
REMARK    6  A    between atoms: N_17  and  C_18 
ROOT
HETATM    1  C   UNK N   1      84.447  16.207  46.826  0.00  0.00     0.113 A 
HETATM    2  C   UNK N   1      84.438  16.511  48.199  0.00  0.00    -0.001 A 
HETATM    3  C   UNK N   1      83.885  17.067  45.868  0.00  0.00     0.066 A 
HETATM    4  C   UNK N   1      83.881  17.745  48.571  0.00  0.00     0.021 A 
HETATM    5  C   UNK N   1      83.299  18.270  46.259  0.00  0.00     0.037 A 
HETATM    6  C   UNK N   1      83.335  18.624  47.617  0.00  0.00    -0.031 A 
HETATM    7  N   UNK N   1      82.791  19.130  45.296  0.00  0.00    -0.383 N 
HETATM    8  C   UNK N   1      82.727  19.926  48.073  0.00  0.00     0.043 C 
HETATM    9  C   UNK N   1      82.074  20.346  45.690  0.00  0.00     0.110 C 
HETATM   10  C   UNK N   1      82.711  20.951  46.944  0.00  0.00     0.031 C 
HETATM   11  H   UNK N   1      82.510  18.721  44.412  0.00  0.00     0.160 HD
ENDROOT
BRANCH   9  12
HETATM   12  C   UNK N   1      82.090  21.386  44.537  0.00  0.00     0.295 C 
BRANCH  12  13
HETATM   13  N   UNK N   1      82.087  20.752  43.204  0.00  0.00     0.089 N 
HETATM   14  H   UNK N   1      82.879  21.138  42.690  0.00  0.00     0.316 HD
BRANCH  13  15
HETATM   15  C   UNK N   1      80.859  21.042  42.448  0.00  0.00     0.212 C 
HETATM   16  C   UNK N   1      80.419  22.474  42.769  0.00  0.00     0.042 C 
HETATM   17  C   UNK N   1      81.083  20.903  40.941  0.00  0.00     0.042 C 
ENDBRANCH  13  15
ENDBRANCH  12  13
ENDBRANCH   9  12
BRANCH   1  18
HETATM   18  N   UNK N   1      85.058  14.977  46.330  0.00  0.00    -0.115 N 
HETATM   19  O   UNK N   1      86.291  14.959  46.205  0.00  0.00    -0.532 OA
HETATM   20  O   UNK N   1      84.302  14.035  46.059  0.00  0.00    -0.532 OA
ENDBRANCH   1  18
BRANCH   2  21
HETATM   21  C   UNK N   1      85.030  15.589  49.239  0.00  0.00     0.205 C 
BRANCH  21  22
HETATM   22  O   UNK N   1      86.431  15.800  49.383  0.00  0.00    -0.396 OA
HETATM   23  H   UNK N   1      86.727  16.241  48.567  0.00  0.00     0.209 HD
ENDBRANCH  21  22
ENDBRANCH   2  21
TORSDOF 6
ENDMDL
MODEL 6
REMARK VINA RESULT:      -6.9     11.110     12.443
REMARK  6 active torsions:
REMARK  status: ('A' for Active; 'I' for Inactive)
REMARK    1  A    between atoms: N_2  and  C_4 
REMARK    2  A    between atoms: C_5  and  C_8 
REMARK    3  A    between atoms: C_8  and  O_11 
REMARK    4  A    between atoms: C_14  and  C_16 
REMARK    5  A    between atoms: C_16  and  N_17 
REMARK    6  A    between atoms: N_17  and  C_18 
ROOT
HETATM    1  C   UNK N   1      92.737  14.896  42.712  0.00  0.00     0.113 A 
HETATM    2  C   UNK N   1      92.192  14.398  41.515  0.00  0.00    -0.001 A 
HETATM    3  C   UNK N   1      94.112  14.826  42.991  0.00  0.00     0.066 A 
HETATM    4  C   UNK N   1      93.096  13.865  40.582  0.00  0.00     0.021 A 
HETATM    5  C   UNK N   1      94.991  14.256  42.071  0.00  0.00     0.037 A 
HETATM    6  C   UNK N   1      94.477  13.810  40.843  0.00  0.00    -0.031 A 
HETATM    7  N   UNK N   1      96.350  14.237  42.342  0.00  0.00    -0.383 N 
HETATM    8  C   UNK N   1      95.401  13.205  39.815  0.00  0.00     0.043 C 
HETATM    9  C   UNK N   1      97.278  13.548  41.440  0.00  0.00     0.110 C 
HETATM   10  C   UNK N   1      96.827  13.718  39.987  0.00  0.00     0.031 C 
HETATM   11  H   UNK N   1      96.630  14.273  43.316  0.00  0.00     0.160 HD
ENDROOT
BRANCH   9  12
HETATM   12  C   UNK N   1      98.719  14.101  41.613  0.00  0.00     0.295 C 
BRANCH  12  13
HETATM   13  N   UNK N   1      99.226  14.747  40.387  0.00  0.00     0.089 N 
HETATM   14  H   UNK N   1      99.440  13.999  39.725  0.00  0.00     0.316 HD
BRANCH  13  15
HETATM   15  C   UNK N   1     100.457  15.517  40.627  0.00  0.00     0.212 C 
HETATM   16  C   UNK N   1     100.843  16.229  39.327  0.00  0.00     0.042 C 
HETATM   17  C   UNK N   1     100.264  16.550  41.738  0.00  0.00     0.042 C 
ENDBRANCH  13  15
ENDBRANCH  12  13
ENDBRANCH   9  12
BRANCH   1  18
HETATM   18  N   UNK N   1      91.890  15.525  43.721  0.00  0.00    -0.115 N 
HETATM   19  O   UNK N   1      91.872  16.764  43.763  0.00  0.00    -0.532 OA
HETATM   20  O   UNK N   1      91.252  14.778  44.474  0.00  0.00    -0.532 OA
ENDBRANCH   1  18
BRANCH   2  21
HETATM   21  C   UNK N   1      90.715  14.458  41.208  0.00  0.00     0.205 C 
BRANCH  21  22
HETATM   22  O   UNK N   1      90.375  15.660  40.525  0.00  0.00    -0.396 OA
HETATM   23  H   UNK N   1      89.902  15.394  39.718  0.00  0.00     0.209 HD
ENDBRANCH  21  22
ENDBRANCH   2  21
TORSDOF 6
ENDMDL
MODEL 7
REMARK VINA RESULT:      -6.8     14.181     15.542
REMARK  6 active torsions:
REMARK  status: ('A' for Active; 'I' for Inactive)
REMARK    1  A    between atoms: N_2  and  C_4 
REMARK    2  A    between atoms: C_5  and  C_8 
REMARK    3  A    between atoms: C_8  and  O_11 
REMARK    4  A    between atoms: C_14  and  C_16 
REMARK    5  A    between atoms: C_16  and  N_17 
REMARK    6  A    between atoms: N_17  and  C_18 
ROOT
HETATM    1  C   UNK N   1      80.595  21.794  41.994  0.00  0.00     0.113 A 
HETATM    2  C   UNK N   1      80.075  23.039  42.389  0.00  0.00    -0.001 A 
HETATM    3  C   UNK N   1      81.486  21.069  42.801  0.00  0.00     0.066 A 
HETATM    4  C   UNK N   1      80.450  23.509  43.657  0.00  0.00     0.021 A 
HETATM    5  C   UNK N   1      81.882  21.569  44.041  0.00  0.00     0.037 A 
HETATM    6  C   UNK N   1      81.326  22.780  44.483  0.00  0.00    -0.031 A 
HETATM    7  N   UNK N   1      82.726  20.818  44.845  0.00  0.00    -0.383 N 
HETATM    8  C   UNK N   1      81.717  23.342  45.826  0.00  0.00     0.043 C 
HETATM    9  C   UNK N   1      83.240  21.371  46.102  0.00  0.00     0.110 C 
HETATM   10  C   UNK N   1      82.172  22.237  46.774  0.00  0.00     0.031 C 
HETATM   11  H   UNK N   1      83.324  20.142  44.386  0.00  0.00     0.160 HD
ENDROOT
BRANCH   9  12
HETATM   12  C   UNK N   1      83.675  20.231  47.062  0.00  0.00     0.295 C 
BRANCH  12  13
HETATM   13  N   UNK N   1      84.055  19.000  46.341  0.00  0.00     0.089 N 
HETATM   14  H   UNK N   1      83.711  19.098  45.385  0.00  0.00     0.316 HD
BRANCH  13  15
HETATM   15  C   UNK N   1      83.447  17.796  46.929  0.00  0.00     0.212 C 
HETATM   16  C   UNK N   1      84.215  16.570  46.426  0.00  0.00     0.042 C 
HETATM   17  C   UNK N   1      83.491  17.835  48.458  0.00  0.00     0.042 C 
ENDBRANCH  13  15
ENDBRANCH  12  13
ENDBRANCH   9  12
BRANCH   1  18
HETATM   18  N   UNK N   1      80.217  21.189  40.720  0.00  0.00    -0.115 N 
HETATM   19  O   UNK N   1      79.322  20.332  40.735  0.00  0.00    -0.532 OA
HETATM   20  O   UNK N   1      80.822  21.568  39.709  0.00  0.00    -0.532 OA
ENDBRANCH   1  18
BRANCH   2  21
HETATM   21  C   UNK N   1      79.123  23.833  41.525  0.00  0.00     0.205 C 
BRANCH  21  22
HETATM   22  O   UNK N   1      79.814  24.513  40.481  0.00  0.00    -0.396 OA
HETATM   23  H   UNK N   1      79.392  24.239  39.649  0.00  0.00     0.209 HD
ENDBRANCH  21  22
ENDBRANCH   2  21
TORSDOF 6
ENDMDL
MODEL 8
REMARK VINA RESULT:      -6.7     12.568     14.153
REMARK  6 active torsions:
REMARK  status: ('A' for Active; 'I' for Inactive)
REMARK    1  A    between atoms: N_2  and  C_4 
REMARK    2  A    between atoms: C_5  and  C_8 
REMARK    3  A    between atoms: C_8  and  O_11 
REMARK    4  A    between atoms: C_14  and  C_16 
REMARK    5  A    between atoms: C_16  and  N_17 
REMARK    6  A    between atoms: N_17  and  C_18 
ROOT
HETATM    1  C   UNK N   1      92.157  15.374  42.935  0.00  0.00     0.113 A 
HETATM    2  C   UNK N   1      90.843  15.813  42.697  0.00  0.00    -0.001 A 
HETATM    3  C   UNK N   1      92.835  14.531  42.040  0.00  0.00     0.066 A 
HETATM    4  C   UNK N   1      90.248  15.407  41.492  0.00  0.00     0.021 A 
HETATM    5  C   UNK N   1      92.214  14.103  40.867  0.00  0.00     0.037 A 
HETATM    6  C   UNK N   1      90.926  14.579  40.578  0.00  0.00    -0.031 A 
HETATM    7  N   UNK N   1      92.914  13.308  39.972  0.00  0.00    -0.383 N 
HETATM    8  C   UNK N   1      90.231  14.151  39.310  0.00  0.00     0.043 C 
HETATM    9  C   UNK N   1      92.247  12.757  38.789  0.00  0.00     0.110 C 
HETATM   10  C   UNK N   1      91.240  13.767  38.232  0.00  0.00     0.031 C 
HETATM   11  H   UNK N   1      93.678  12.754  40.343  0.00  0.00     0.160 HD
ENDROOT
BRANCH   9  12
HETATM   12  C   UNK N   1      93.289  12.395  37.694  0.00  0.00     0.295 C 
BRANCH  12  13
HETATM   13  N   UNK N   1      94.607  12.050  38.262  0.00  0.00     0.089 N 
HETATM   14  H   UNK N   1      95.294  12.185  37.519  0.00  0.00     0.316 HD
BRANCH  13  15
HETATM   15  C   UNK N   1      94.676  10.649  38.706  0.00  0.00     0.212 C 
HETATM   16  C   UNK N   1      95.481   9.853  37.675  0.00  0.00     0.042 C 
HETATM   17  C   UNK N   1      95.343  10.528  40.078  0.00  0.00     0.042 C 
ENDBRANCH  13  15
ENDBRANCH  12  13
ENDBRANCH   9  12
BRANCH   1  18
HETATM   18  N   UNK N   1      92.886  15.792  44.129  0.00  0.00    -0.115 N 
HETATM   19  O   UNK N   1      93.182  16.991  44.231  0.00  0.00    -0.532 OA
HETATM   20  O   UNK N   1      93.168  14.917  44.958  0.00  0.00    -0.532 OA
ENDBRANCH   1  18
BRANCH   2  21
HETATM   21  C   UNK N   1      90.100  16.713  43.657  0.00  0.00     0.205 C 
BRANCH  21  22
HETATM   22  O   UNK N   1      90.441  18.080  43.456  0.00  0.00    -0.396 OA
HETATM   23  H   UNK N   1      89.652  18.598  43.694  0.00  0.00     0.209 HD
ENDBRANCH  21  22
ENDBRANCH   2  21
TORSDOF 6
ENDMDL
MODEL 9
REMARK VINA RESULT:      -6.5     40.388     42.620
REMARK  6 active torsions:
REMARK  status: ('A' for Active; 'I' for Inactive)
REMARK    1  A    between atoms: N_2  and  C_4 
REMARK    2  A    between atoms: C_5  and  C_8 
REMARK    3  A    between atoms: C_8  and  O_11 
REMARK    4  A    between atoms: C_14  and  C_16 
REMARK    5  A    between atoms: C_16  and  N_17 
REMARK    6  A    between atoms: N_17  and  C_18 
ROOT
HETATM    1  C   UNK N   1      77.881   6.287  16.484  0.00  0.00     0.113 A 
HETATM    2  C   UNK N   1      77.449   7.600  16.224  0.00  0.00    -0.001 A 
HETATM    3  C   UNK N   1      77.007   5.190  16.428  0.00  0.00     0.066 A 
HETATM    4  C   UNK N   1      76.104   7.763  15.857  0.00  0.00     0.021 A 
HETATM    5  C   UNK N   1      75.664   5.374  16.101  0.00  0.00     0.037 A 
HETATM    6  C   UNK N   1      75.225   6.667  15.777  0.00  0.00    -0.031 A 
HETATM    7  N   UNK N   1      74.824   4.275  16.005  0.00  0.00    -0.383 N 
HETATM    8  C   UNK N   1      73.783   6.901  15.402  0.00  0.00     0.043 C 
HETATM    9  C   UNK N   1      73.388   4.454  15.771  0.00  0.00     0.110 C 
HETATM   10  C   UNK N   1      73.151   5.637  14.828  0.00  0.00     0.031 C 
HETATM   11  H   UNK N   1      75.083   3.446  16.528  0.00  0.00     0.160 HD
ENDROOT
BRANCH   9  12
HETATM   12  C   UNK N   1      72.769   3.165  15.165  0.00  0.00     0.295 C 
BRANCH  12  13
HETATM   13  N   UNK N   1      72.562   3.270  13.708  0.00  0.00     0.089 N 
HETATM   14  H   UNK N   1      71.606   2.964  13.521  0.00  0.00     0.316 HD
BRANCH  13  15
HETATM   15  C   UNK N   1      73.479   2.406  12.948  0.00  0.00     0.212 C 
HETATM   16  C   UNK N   1      72.755   1.917  11.691  0.00  0.00     0.042 C 
HETATM   17  C   UNK N   1      74.751   3.155  12.546  0.00  0.00     0.042 C 
ENDBRANCH  13  15
ENDBRANCH  12  13
ENDBRANCH   9  12
BRANCH   1  18
HETATM   18  N   UNK N   1      79.275   6.004  16.813  0.00  0.00    -0.115 N 
HETATM   19  O   UNK N   1      80.079   5.912  15.875  0.00  0.00    -0.532 OA
HETATM   20  O   UNK N   1      79.560   5.866  18.010  0.00  0.00    -0.532 OA
ENDBRANCH   1  18
BRANCH   2  21
HETATM   21  C   UNK N   1      78.378   8.789  16.291  0.00  0.00     0.205 C 
BRANCH  21  22
HETATM   22  O   UNK N   1      79.205   8.868  15.135  0.00  0.00    -0.396 OA
HETATM   23  H   UNK N   1      79.390   9.812  14.993  0.00  0.00     0.209 HD
ENDBRANCH  21  22
ENDBRANCH   2  21
TORSDOF 6
ENDMDL
