MODEL 1
REMARK VINA RESULT:      -8.8      0.000      0.000
REMARK  9 active torsions:
REMARK  status: ('A' for Active; 'I' for Inactive)
REMARK    1  A    between atoms: O_1  and  N_2 
REMARK    2  A    between atoms: C_4  and  O_5 
REMARK    3  A    between atoms: C_4  and  C_6 
REMARK    4  A    between atoms: C_7  and  C_8 
REMARK    5  A    between atoms: C_13  and  C_14 
REMARK    6  A    between atoms: C_14  and  N_15 
REMARK    7  A    between atoms: N_15  and  C_16 
REMARK    8  A    between atoms: C_16  and  C_17 
REMARK    9  A    between atoms: C_17  and  C_18 
ROOT
HETATM    1  C   UNK N   1      79.520  22.721  38.859  0.00  0.00     0.308 C 
ENDROOT
BRANCH   1   2
HETATM    2  C   UNK N   1      80.119  22.276  40.172  0.00  0.00    -0.030 A 
HETATM    3  C   UNK N   1      79.914  23.023  41.340  0.00  0.00     0.010 A 
HETATM    4  C   UNK N   1      80.460  22.609  42.558  0.00  0.00     0.012 A 
HETATM    5  C   UNK N   1      81.230  21.442  42.634  0.00  0.00    -0.036 A 
HETATM    6  C   UNK N   1      81.420  20.686  41.470  0.00  0.00     0.012 A 
HETATM    7  C   UNK N   1      80.875  21.099  40.251  0.00  0.00     0.010 A 
BRANCH   5   8
HETATM    8  C   UNK N   1      81.802  20.956  43.897  0.00  0.00     0.016 C 
HETATM    9  C   UNK N   1      82.386  21.750  44.807  0.00  0.00     0.058 C 
BRANCH   9  10
HETATM   10  C   UNK N   1      82.964  21.248  46.060  0.00  0.00     0.159 C 
HETATM   11  N   UNK N   1      83.792  20.262  46.146  0.00  0.00    -0.248 N 
ATOM     12  HN  UNK N   1      84.137  19.723  45.351  1.00  0.00     0.196 HD
BRANCH  11  13
HETATM   13  O   UNK N   1      84.158  20.032  47.484  0.00  0.00    -0.288 OA
HETATM   14  H   UNK N   1      84.380  19.080  47.474  0.00  0.00     0.244 HD
ENDBRANCH  11  13
BRANCH  10  15
HETATM   15  O   UNK N   1      82.565  21.900  47.162  0.00  0.00    -0.345 OA
HETATM   16  H   UNK N   1      83.173  22.657  47.249  0.00  0.00     0.219 HD
ENDBRANCH  10  15
ENDBRANCH   9  10
ENDBRANCH   5   8
ENDBRANCH   1   2
BRANCH   1  17
HETATM   17  N   UNK N   1      80.498  22.805  37.767  0.00  0.00     0.087 N 
HETATM   18  H   UNK N   1      81.427  22.661  38.157  0.00  0.00     0.316 HD
BRANCH  17  19
HETATM   19  C   UNK N   1      80.465  24.118  37.105  0.00  0.00     0.274 C 
BRANCH  19  20
HETATM   20  C   UNK N   1      81.823  24.434  36.462  0.00  0.00     0.071 C 
BRANCH  20  21
HETATM   21  C   UNK N   1      82.649  25.348  37.316  0.00  0.00    -0.022 A 
HETATM   22  C   UNK N   1      83.929  25.049  37.888  0.00  0.00    -0.001 A 
HETATM   23  C   UNK N   1      84.336  26.169  38.610  0.00  0.00     0.043 A 
HETATM   24  C   UNK N   1      84.779  23.924  37.859  0.00  0.00     0.014 A 
HETATM   25  C   UNK N   1      85.551  26.224  39.305  0.00  0.00     0.030 A 
HETATM   26  N   UNK N   1      83.347  27.113  38.482  0.00  0.00    -0.359 N 
HETATM   27  C   UNK N   1      86.375  25.095  39.261  0.00  0.00     0.002 A 
HETATM   28  C   UNK N   1      85.998  23.960  38.549  0.00  0.00     0.001 A 
HETATM   29  C   UNK N   1      82.318  26.636  37.709  0.00  0.00     0.013 A 
HETATM   30  H   UNK N   1      83.379  28.031  38.906  0.00  0.00     0.166 HD
HETATM   31  C   UNK N   1      81.114  27.457  37.421  0.00  0.00     0.068 C 
ENDBRANCH  20  21
ENDBRANCH  19  20
ENDBRANCH  17  19
ENDBRANCH   1  17
TORSDOF 9
ENDMDL
MODEL 2
REMARK VINA RESULT:      -8.7     11.990     14.694
REMARK  9 active torsions:
REMARK  status: ('A' for Active; 'I' for Inactive)
REMARK    1  A    between atoms: O_1  and  N_2 
REMARK    2  A    between atoms: C_4  and  O_5 
REMARK    3  A    between atoms: C_4  and  C_6 
REMARK    4  A    between atoms: C_7  and  C_8 
REMARK    5  A    between atoms: C_13  and  C_14 
REMARK    6  A    between atoms: C_14  and  N_15 
REMARK    7  A    between atoms: N_15  and  C_16 
REMARK    8  A    between atoms: C_16  and  C_17 
REMARK    9  A    between atoms: C_17  and  C_18 
ROOT
HETATM    1  C   UNK N   1      93.907  13.525  44.013  0.00  0.00     0.308 C 
ENDROOT
BRANCH   1   2
HETATM    2  C   UNK N   1      93.251  13.314  42.669  0.00  0.00    -0.030 A 
HETATM    3  C   UNK N   1      92.716  12.066  42.324  0.00  0.00     0.010 A 
HETATM    4  C   UNK N   1      92.101  11.869  41.084  0.00  0.00     0.012 A 
HETATM    5  C   UNK N   1      92.014  12.917  40.159  0.00  0.00    -0.036 A 
HETATM    6  C   UNK N   1      92.531  14.169  40.512  0.00  0.00     0.012 A 
HETATM    7  C   UNK N   1      93.148  14.366  41.751  0.00  0.00     0.010 A 
BRANCH   5   8
HETATM    8  C   UNK N   1      91.354  12.763  38.855  0.00  0.00     0.016 C 
HETATM    9  C   UNK N   1      90.317  11.941  38.635  0.00  0.00     0.058 C 
BRANCH   9  10
HETATM   10  C   UNK N   1      89.675  11.789  37.324  0.00  0.00     0.159 C 
HETATM   11  N   UNK N   1      88.585  12.379  36.964  0.00  0.00    -0.248 N 
ATOM     12  HN  UNK N   1      88.049  13.017  37.554  1.00  0.00     0.196 HD
BRANCH  11  13
HETATM   13  O   UNK N   1      88.235  12.026  35.649  0.00  0.00    -0.288 OA
HETATM   14  H   UNK N   1      87.894  12.871  35.295  0.00  0.00     0.244 HD
ENDBRANCH  11  13
BRANCH  10  15
HETATM   15  O   UNK N   1      90.313  10.965  36.479  0.00  0.00    -0.345 OA
HETATM   16  H   UNK N   1      90.770  10.317  37.045  0.00  0.00     0.219 HD
ENDBRANCH  10  15
ENDBRANCH   9  10
ENDBRANCH   5   8
ENDBRANCH   1   2
BRANCH   1  17
HETATM   17  N   UNK N   1      93.357  14.661  44.762  0.00  0.00     0.087 N 
HETATM   18  H   UNK N   1      94.128  15.152  45.212  0.00  0.00     0.316 HD
BRANCH  17  19
HETATM   19  C   UNK N   1      92.411  14.223  45.800  0.00  0.00     0.274 C 
BRANCH  19  20
HETATM   20  C   UNK N   1      91.206  15.173  45.870  0.00  0.00     0.071 C 
BRANCH  20  21
HETATM   21  C   UNK N   1      90.652  15.476  44.511  0.00  0.00    -0.022 A 
HETATM   22  C   UNK N   1      89.953  14.563  43.656  0.00  0.00    -0.001 A 
HETATM   23  C   UNK N   1      89.621  15.252  42.490  0.00  0.00     0.043 A 
HETATM   24  C   UNK N   1      89.572  13.210  43.766  0.00  0.00     0.014 A 
HETATM   25  C   UNK N   1      88.928  14.657  41.429  0.00  0.00     0.030 A 
HETATM   26  N   UNK N   1      90.097  16.533  42.629  0.00  0.00    -0.359 N 
HETATM   27  C   UNK N   1      88.563  13.314  41.564  0.00  0.00     0.002 A 
HETATM   28  C   UNK N   1      88.879  12.598  42.715  0.00  0.00     0.001 A 
HETATM   29  C   UNK N   1      90.726  16.688  43.839  0.00  0.00     0.013 A 
HETATM   30  H   UNK N   1      89.996  17.255  41.929  0.00  0.00     0.166 HD
HETATM   31  C   UNK N   1      91.341  17.980  44.238  0.00  0.00     0.068 C 
ENDBRANCH  20  21
ENDBRANCH  19  20
ENDBRANCH  17  19
ENDBRANCH   1  17
TORSDOF 9
ENDMDL
MODEL 3
REMARK VINA RESULT:      -8.6     12.065     14.232
REMARK  9 active torsions:
REMARK  status: ('A' for Active; 'I' for Inactive)
REMARK    1  A    between atoms: O_1  and  N_2 
REMARK    2  A    between atoms: C_4  and  O_5 
REMARK    3  A    between atoms: C_4  and  C_6 
REMARK    4  A    between atoms: C_7  and  C_8 
REMARK    5  A    between atoms: C_13  and  C_14 
REMARK    6  A    between atoms: C_14  and  N_15 
REMARK    7  A    between atoms: N_15  and  C_16 
REMARK    8  A    between atoms: C_16  and  C_17 
REMARK    9  A    between atoms: C_17  and  C_18 
ROOT
HETATM    1  C   UNK N   1      87.709  12.842  41.212  0.00  0.00     0.308 C 
ENDROOT
BRANCH   1   2
HETATM    2  C   UNK N   1      89.177  13.199  41.223  0.00  0.00    -0.030 A 
HETATM    3  C   UNK N   1      89.639  14.341  40.557  0.00  0.00     0.010 A 
HETATM    4  C   UNK N   1      90.996  14.678  40.573  0.00  0.00     0.012 A 
HETATM    5  C   UNK N   1      91.921  13.875  41.251  0.00  0.00    -0.036 A 
HETATM    6  C   UNK N   1      91.456  12.744  41.933  0.00  0.00     0.012 A 
HETATM    7  C   UNK N   1      90.100  12.405  41.917  0.00  0.00     0.010 A 
BRANCH   5   8
HETATM    8  C   UNK N   1      93.352  14.205  41.316  0.00  0.00     0.016 C 
HETATM    9  C   UNK N   1      94.225  13.941  40.333  0.00  0.00     0.058 C 
BRANCH   9  10
HETATM   10  C   UNK N   1      95.654  14.265  40.417  0.00  0.00     0.159 C 
HETATM   11  N   UNK N   1      96.186  15.020  41.317  0.00  0.00    -0.248 N 
ATOM     12  HN  UNK N   1      95.670  15.475  42.071  1.00  0.00     0.196 HD
BRANCH  11  13
HETATM   13  O   UNK N   1      97.574  15.131  41.121  0.00  0.00    -0.288 OA
HETATM   14  H   UNK N   1      97.624  15.713  40.337  0.00  0.00     0.244 HD
ENDBRANCH  11  13
BRANCH  10  15
HETATM   15  O   UNK N   1      96.413  13.708  39.461  0.00  0.00    -0.345 OA
HETATM   16  H   UNK N   1      95.787  13.265  38.859  0.00  0.00     0.219 HD
ENDBRANCH  10  15
ENDBRANCH   9  10
ENDBRANCH   5   8
ENDBRANCH   1   2
BRANCH   1  17
HETATM   17  N   UNK N   1      86.900  13.659  42.123  0.00  0.00     0.087 N 
HETATM   18  H   UNK N   1      87.315  14.588  42.175  0.00  0.00     0.316 HD
BRANCH  17  19
HETATM   19  C   UNK N   1      86.858  13.087  43.478  0.00  0.00     0.274 C 
BRANCH  19  20
HETATM   20  C   UNK N   1      87.218  14.151  44.525  0.00  0.00     0.071 C 
BRANCH  20  21
HETATM   21  C   UNK N   1      88.669  14.104  44.898  0.00  0.00    -0.022 A 
HETATM   22  C   UNK N   1      89.682  15.029  44.483  0.00  0.00    -0.001 A 
HETATM   23  C   UNK N   1      90.885  14.612  45.050  0.00  0.00     0.043 A 
HETATM   24  C   UNK N   1      89.686  16.184  43.675  0.00  0.00     0.014 A 
HETATM   25  C   UNK N   1      92.094  15.291  44.850  0.00  0.00     0.030 A 
HETATM   26  N   UNK N   1      90.617  13.481  45.781  0.00  0.00    -0.359 N 
HETATM   27  C   UNK N   1      92.070  16.433  44.043  0.00  0.00     0.002 A 
HETATM   28  C   UNK N   1      90.885  16.876  43.463  0.00  0.00     0.001 A 
HETATM   29  C   UNK N   1      89.287  13.155  45.699  0.00  0.00     0.013 A 
HETATM   30  H   UNK N   1      91.311  12.963  46.303  0.00  0.00     0.166 HD
HETATM   31  C   UNK N   1      88.731  11.964  46.393  0.00  0.00     0.068 C 
ENDBRANCH  20  21
ENDBRANCH  19  20
ENDBRANCH  17  19
ENDBRANCH   1  17
TORSDOF 9
ENDMDL
MODEL 4
REMARK VINA RESULT:      -8.4     29.661     31.946
REMARK  9 active torsions:
REMARK  status: ('A' for Active; 'I' for Inactive)
REMARK    1  A    between atoms: O_1  and  N_2 
REMARK    2  A    between atoms: C_4  and  O_5 
REMARK    3  A    between atoms: C_4  and  C_6 
REMARK    4  A    between atoms: C_7  and  C_8 
REMARK    5  A    between atoms: C_13  and  C_14 
REMARK    6  A    between atoms: C_14  and  N_15 
REMARK    7  A    between atoms: N_15  and  C_16 
REMARK    8  A    between atoms: C_16  and  C_17 
REMARK    9  A    between atoms: C_17  and  C_18 
ROOT
HETATM    1  C   UNK N   1      73.461   4.546  13.658  0.00  0.00     0.308 C 
ENDROOT
BRANCH   1   2
HETATM    2  C   UNK N   1      74.925   4.913  13.582  0.00  0.00    -0.030 A 
HETATM    3  C   UNK N   1      75.898   4.088  14.160  0.00  0.00     0.010 A 
HETATM    4  C   UNK N   1      77.254   4.420  14.085  0.00  0.00     0.012 A 
HETATM    5  C   UNK N   1      77.665   5.590  13.435  0.00  0.00    -0.036 A 
HETATM    6  C   UNK N   1      76.693   6.406  12.841  0.00  0.00     0.012 A 
HETATM    7  C   UNK N   1      75.337   6.074  12.917  0.00  0.00     0.010 A 
BRANCH   5   8
HETATM    8  C   UNK N   1      79.080   5.966  13.309  0.00  0.00     0.016 C 
HETATM    9  C   UNK N   1      80.083   5.310  13.910  0.00  0.00     0.058 C 
BRANCH   9  10
HETATM   10  C   UNK N   1      81.492   5.705  13.785  0.00  0.00     0.159 C 
HETATM   11  N   UNK N   1      82.495   4.985  14.161  0.00  0.00    -0.248 N 
ATOM     12  HN  UNK N   1      82.418   4.061  14.587  1.00  0.00     0.196 HD
BRANCH  11  13
HETATM   13  O   UNK N   1      83.709   5.645  13.902  0.00  0.00    -0.288 OA
HETATM   14  H   UNK N   1      83.452   6.278  13.203  0.00  0.00     0.244 HD
ENDBRANCH  11  13
BRANCH  10  15
HETATM   15  O   UNK N   1      81.690   6.911  13.232  0.00  0.00    -0.345 OA
HETATM   16  H   UNK N   1      81.601   6.773  12.271  0.00  0.00     0.219 HD
ENDBRANCH  10  15
ENDBRANCH   9  10
ENDBRANCH   5   8
ENDBRANCH   1   2
BRANCH   1  17
HETATM   17  N   UNK N   1      72.709   5.335  14.641  0.00  0.00     0.087 N 
HETATM   18  H   UNK N   1      72.999   6.308  14.560  0.00  0.00     0.316 HD
BRANCH  17  19
HETATM   19  C   UNK N   1      72.966   4.881  16.016  0.00  0.00     0.274 C 
BRANCH  19  20
HETATM   20  C   UNK N   1      73.530   6.027  16.868  0.00  0.00     0.071 C 
BRANCH  20  21
HETATM   21  C   UNK N   1      74.959   5.790  17.254  0.00  0.00    -0.022 A 
HETATM   22  C   UNK N   1      76.082   6.602  16.890  0.00  0.00    -0.001 A 
HETATM   23  C   UNK N   1      77.218   6.020  17.451  0.00  0.00     0.043 A 
HETATM   24  C   UNK N   1      76.238   7.781  16.132  0.00  0.00     0.014 A 
HETATM   25  C   UNK N   1      78.502   6.556  17.293  0.00  0.00     0.030 A 
HETATM   26  N   UNK N   1      76.803   4.900  18.130  0.00  0.00    -0.359 N 
HETATM   27  C   UNK N   1      78.628   7.725  16.537  0.00  0.00     0.002 A 
HETATM   28  C   UNK N   1      77.514   8.331  15.963  0.00  0.00     0.001 A 
HETATM   29  C   UNK N   1      75.445   4.741  18.019  0.00  0.00     0.013 A 
HETATM   30  H   UNK N   1      77.423   4.281  18.636  0.00  0.00     0.166 HD
HETATM   31  C   UNK N   1      74.740   3.598  18.656  0.00  0.00     0.068 C 
ENDBRANCH  20  21
ENDBRANCH  19  20
ENDBRANCH  17  19
ENDBRANCH   1  17
TORSDOF 9
ENDMDL
MODEL 5
REMARK VINA RESULT:      -8.3     10.296     12.695
REMARK  9 active torsions:
REMARK  status: ('A' for Active; 'I' for Inactive)
REMARK    1  A    between atoms: O_1  and  N_2 
REMARK    2  A    between atoms: C_4  and  O_5 
REMARK    3  A    between atoms: C_4  and  C_6 
REMARK    4  A    between atoms: C_7  and  C_8 
REMARK    5  A    between atoms: C_13  and  C_14 
REMARK    6  A    between atoms: C_14  and  N_15 
REMARK    7  A    between atoms: N_15  and  C_16 
REMARK    8  A    between atoms: C_16  and  C_17 
REMARK    9  A    between atoms: C_17  and  C_18 
ROOT
HETATM    1  C   UNK N   1      90.739  10.809  42.023  0.00  0.00     0.308 C 
ENDROOT
BRANCH   1   2
HETATM    2  C   UNK N   1      89.871  11.815  42.742  0.00  0.00    -0.030 A 
HETATM    3  C   UNK N   1      90.118  12.141  44.082  0.00  0.00     0.010 A 
HETATM    4  C   UNK N   1      89.321  13.078  44.748  0.00  0.00     0.012 A 
HETATM    5  C   UNK N   1      88.256  13.703  44.090  0.00  0.00    -0.036 A 
HETATM    6  C   UNK N   1      88.021  13.390  42.745  0.00  0.00     0.012 A 
HETATM    7  C   UNK N   1      88.816  12.454  42.078  0.00  0.00     0.010 A 
BRANCH   5   8
HETATM    8  C   UNK N   1      87.409  14.711  44.742  0.00  0.00     0.016 C 
HETATM    9  C   UNK N   1      86.094  14.845  44.512  0.00  0.00     0.058 C 
BRANCH   9  10
HETATM   10  C   UNK N   1      85.263  15.865  45.162  0.00  0.00     0.159 C 
HETATM   11  N   UNK N   1      84.632  16.806  44.544  0.00  0.00    -0.248 N 
ATOM     12  HN  UNK N   1      84.642  16.943  43.532  1.00  0.00     0.196 HD
BRANCH  11  13
HETATM   13  O   UNK N   1      83.927  17.616  45.451  0.00  0.00    -0.288 OA
HETATM   14  H   UNK N   1      83.191  17.948  44.899  0.00  0.00     0.244 HD
ENDBRANCH  11  13
BRANCH  10  15
HETATM   15  O   UNK N   1      85.191  15.762  46.498  0.00  0.00    -0.345 OA
HETATM   16  H   UNK N   1      84.460  16.349  46.764  0.00  0.00     0.219 HD
ENDBRANCH  10  15
ENDBRANCH   9  10
ENDBRANCH   5   8
ENDBRANCH   1   2
BRANCH   1  17
HETATM   17  N   UNK N   1      92.150  11.205  41.941  0.00  0.00     0.087 N 
HETATM   18  H   UNK N   1      92.317  11.938  42.628  0.00  0.00     0.316 HD
BRANCH  17  19
HETATM   19  C   UNK N   1      92.495  11.722  40.608  0.00  0.00     0.274 C 
BRANCH  19  20
HETATM   20  C   UNK N   1      93.105  13.128  40.715  0.00  0.00     0.071 C 
BRANCH  20  21
HETATM   21  C   UNK N   1      92.069  14.167  41.025  0.00  0.00    -0.022 A 
HETATM   22  C   UNK N   1      91.873  14.820  42.285  0.00  0.00    -0.001 A 
HETATM   23  C   UNK N   1      90.806  15.704  42.136  0.00  0.00     0.043 A 
HETATM   24  C   UNK N   1      92.506  14.739  43.543  0.00  0.00     0.014 A 
HETATM   25  C   UNK N   1      90.338  16.512  43.180  0.00  0.00     0.030 A 
HETATM   26  N   UNK N   1      90.370  15.596  40.838  0.00  0.00    -0.359 N 
HETATM   27  C   UNK N   1      90.983  16.412  44.416  0.00  0.00     0.002 A 
HETATM   28  C   UNK N   1      92.052  15.539  44.599  0.00  0.00     0.001 A 
HETATM   29  C   UNK N   1      91.116  14.670  40.152  0.00  0.00     0.013 A 
HETATM   30  H   UNK N   1      89.602  16.126  40.451  0.00  0.00     0.166 HD
HETATM   31  C   UNK N   1      90.845  14.353  38.726  0.00  0.00     0.068 C 
ENDBRANCH  20  21
ENDBRANCH  19  20
ENDBRANCH  17  19
ENDBRANCH   1  17
TORSDOF 9
ENDMDL
MODEL 6
REMARK VINA RESULT:      -8.3     12.245     14.225
REMARK  9 active torsions:
REMARK  status: ('A' for Active; 'I' for Inactive)
REMARK    1  A    between atoms: O_1  and  N_2 
REMARK    2  A    between atoms: C_4  and  O_5 
REMARK    3  A    between atoms: C_4  and  C_6 
REMARK    4  A    between atoms: C_7  and  C_8 
REMARK    5  A    between atoms: C_13  and  C_14 
REMARK    6  A    between atoms: C_14  and  N_15 
REMARK    7  A    between atoms: N_15  and  C_16 
REMARK    8  A    between atoms: C_16  and  C_17 
REMARK    9  A    between atoms: C_17  and  C_18 
ROOT
HETATM    1  C   UNK N   1      88.065  12.978  43.151  0.00  0.00     0.308 C 
ENDROOT
BRANCH   1   2
HETATM    2  C   UNK N   1      88.304  12.752  41.677  0.00  0.00    -0.030 A 
HETATM    3  C   UNK N   1      87.620  13.511  40.718  0.00  0.00     0.010 A 
HETATM    4  C   UNK N   1      87.846  13.309  39.353  0.00  0.00     0.012 A 
HETATM    5  C   UNK N   1      88.757  12.339  38.918  0.00  0.00    -0.036 A 
HETATM    6  C   UNK N   1      89.455  11.594  39.877  0.00  0.00     0.012 A 
HETATM    7  C   UNK N   1      89.229  11.794  41.242  0.00  0.00     0.010 A 
BRANCH   5   8
HETATM    8  C   UNK N   1      89.044  12.111  37.495  0.00  0.00     0.016 C 
HETATM    9  C   UNK N   1      88.341  11.277  36.715  0.00  0.00     0.058 C 
BRANCH   9  10
HETATM   10  C   UNK N   1      88.648  11.050  35.298  0.00  0.00     0.159 C 
HETATM   11  N   UNK N   1      88.072  11.655  34.313  0.00  0.00    -0.248 N 
ATOM     12  HN  UNK N   1      87.340  12.359  34.414  1.00  0.00     0.196 HD
BRANCH  11  13
HETATM   13  O   UNK N   1      88.592  11.215  33.083  0.00  0.00    -0.288 OA
HETATM   14  H   UNK N   1      88.646  10.248  33.218  0.00  0.00     0.244 HD
ENDBRANCH  11  13
BRANCH  10  15
HETATM   15  O   UNK N   1      89.603  10.137  35.069  0.00  0.00    -0.345 OA
HETATM   16  H   UNK N   1      89.738   9.684  35.921  0.00  0.00     0.219 HD
ENDBRANCH  10  15
ENDBRANCH   9  10
ENDBRANCH   5   8
ENDBRANCH   1   2
BRANCH   1  17
HETATM   17  N   UNK N   1      87.840  14.386  43.500  0.00  0.00     0.087 N 
HETATM   18  H   UNK N   1      87.579  14.888  42.653  0.00  0.00     0.316 HD
BRANCH  17  19
HETATM   19  C   UNK N   1      89.048  15.008  44.063  0.00  0.00     0.274 C 
BRANCH  19  20
HETATM   20  C   UNK N   1      89.791  15.815  42.988  0.00  0.00     0.071 C 
BRANCH  20  21
HETATM   21  C   UNK N   1      91.060  15.143  42.558  0.00  0.00    -0.022 A 
HETATM   22  C   UNK N   1      91.444  14.835  41.212  0.00  0.00    -0.001 A 
HETATM   23  C   UNK N   1      92.688  14.208  41.265  0.00  0.00     0.043 A 
HETATM   24  C   UNK N   1      90.845  15.031  39.951  0.00  0.00     0.014 A 
HETATM   25  C   UNK N   1      93.365  13.768  40.122  0.00  0.00     0.030 A 
HETATM   26  N   UNK N   1      93.049  14.139  42.589  0.00  0.00    -0.359 N 
HETATM   27  C   UNK N   1      92.749  13.974  38.883  0.00  0.00     0.002 A 
HETATM   28  C   UNK N   1      91.507  14.597  38.796  0.00  0.00     0.001 A 
HETATM   29  C   UNK N   1      92.078  14.692  43.386  0.00  0.00     0.013 A 
HETATM   30  H   UNK N   1      93.911  13.730  42.922  0.00  0.00     0.166 HD
HETATM   31  C   UNK N   1      92.216  14.737  44.864  0.00  0.00     0.068 C 
ENDBRANCH  20  21
ENDBRANCH  19  20
ENDBRANCH  17  19
ENDBRANCH   1  17
TORSDOF 9
ENDMDL
MODEL 7
REMARK VINA RESULT:      -8.2     13.828     16.436
REMARK  9 active torsions:
REMARK  status: ('A' for Active; 'I' for Inactive)
REMARK    1  A    between atoms: O_1  and  N_2 
REMARK    2  A    between atoms: C_4  and  O_5 
REMARK    3  A    between atoms: C_4  and  C_6 
REMARK    4  A    between atoms: C_7  and  C_8 
REMARK    5  A    between atoms: C_13  and  C_14 
REMARK    6  A    between atoms: C_14  and  N_15 
REMARK    7  A    between atoms: N_15  and  C_16 
REMARK    8  A    between atoms: C_16  and  C_17 
REMARK    9  A    between atoms: C_17  and  C_18 
ROOT
HETATM    1  C   UNK N   1      94.099  10.726  43.810  0.00  0.00     0.308 C 
ENDROOT
BRANCH   1   2
HETATM    2  C   UNK N   1      93.704  12.184  43.832  0.00  0.00    -0.030 A 
HETATM    3  C   UNK N   1      94.520  13.135  44.458  0.00  0.00     0.010 A 
HETATM    4  C   UNK N   1      94.161  14.486  44.473  0.00  0.00     0.012 A 
HETATM    5  C   UNK N   1      92.973  14.914  43.869  0.00  0.00    -0.036 A 
HETATM    6  C   UNK N   1      92.167  13.966  43.226  0.00  0.00     0.012 A 
HETATM    7  C   UNK N   1      92.525  12.614  43.211  0.00  0.00     0.010 A 
BRANCH   5   8
HETATM    8  C   UNK N   1      92.569  16.326  43.838  0.00  0.00     0.016 C 
HETATM    9  C   UNK N   1      91.459  16.799  44.424  0.00  0.00     0.058 C 
BRANCH   9  10
HETATM   10  C   UNK N   1      91.062  18.211  44.375  0.00  0.00     0.159 C 
HETATM   11  N   UNK N   1      90.565  18.801  43.341  0.00  0.00    -0.248 N 
ATOM     12  HN  UNK N   1      90.393  18.349  42.442  1.00  0.00     0.196 HD
BRANCH  11  13
HETATM   13  O   UNK N   1      90.289  20.151  43.619  0.00  0.00    -0.288 OA
HETATM   14  H   UNK N   1      90.784  20.610  42.912  0.00  0.00     0.244 HD
ENDBRANCH  11  13
BRANCH  10  15
HETATM   15  O   UNK N   1      91.252  18.887  45.518  0.00  0.00    -0.345 OA
HETATM   16  H   UNK N   1      91.167  18.225  46.228  0.00  0.00     0.219 HD
ENDBRANCH  10  15
ENDBRANCH   9  10
ENDBRANCH   5   8
ENDBRANCH   1   2
BRANCH   1  17
HETATM   17  N   UNK N   1      95.536  10.505  44.009  0.00  0.00     0.087 N 
HETATM   18  H   UNK N   1      96.005  11.409  43.993  0.00  0.00     0.316 HD
BRANCH  17  19
HETATM   19  C   UNK N   1      96.110   9.660  42.950  0.00  0.00     0.274 C 
BRANCH  19  20
HETATM   20  C   UNK N   1      97.320  10.351  42.304  0.00  0.00     0.071 C 
BRANCH  20  21
HETATM   21  C   UNK N   1      97.084  11.816  42.093  0.00  0.00    -0.022 A 
HETATM   22  C   UNK N   1      96.099  12.401  41.231  0.00  0.00    -0.001 A 
HETATM   23  C   UNK N   1      96.228  13.786  41.329  0.00  0.00     0.043 A 
HETATM   24  C   UNK N   1      95.109  11.879  40.374  0.00  0.00     0.014 A 
HETATM   25  C   UNK N   1      95.417  14.676  40.614  0.00  0.00     0.030 A 
HETATM   26  N   UNK N   1      97.248  14.035  42.215  0.00  0.00    -0.359 N 
HETATM   27  C   UNK N   1      94.443  14.131  39.771  0.00  0.00     0.002 A 
HETATM   28  C   UNK N   1      94.288  12.753  39.651  0.00  0.00     0.001 A 
HETATM   29  C   UNK N   1      97.781  12.860  42.683  0.00  0.00     0.013 A 
HETATM   30  H   UNK N   1      97.559  14.960  42.477  0.00  0.00     0.166 HD
HETATM   31  C   UNK N   1      98.908  12.847  43.651  0.00  0.00     0.068 C 
ENDBRANCH  20  21
ENDBRANCH  19  20
ENDBRANCH  17  19
ENDBRANCH   1  17
TORSDOF 9
ENDMDL
MODEL 8
REMARK VINA RESULT:      -8.0      5.165      6.250
REMARK  9 active torsions:
REMARK  status: ('A' for Active; 'I' for Inactive)
REMARK    1  A    between atoms: O_1  and  N_2 
REMARK    2  A    between atoms: C_4  and  O_5 
REMARK    3  A    between atoms: C_4  and  C_6 
REMARK    4  A    between atoms: C_7  and  C_8 
REMARK    5  A    between atoms: C_13  and  C_14 
REMARK    6  A    between atoms: C_14  and  N_15 
REMARK    7  A    between atoms: N_15  and  C_16 
REMARK    8  A    between atoms: C_16  and  C_17 
REMARK    9  A    between atoms: C_17  and  C_18 
ROOT
HETATM    1  C   UNK N   1      80.914  25.159  45.922  0.00  0.00     0.308 C 
ENDROOT
BRANCH   1   2
HETATM    2  C   UNK N   1      81.647  23.858  46.147  0.00  0.00    -0.030 A 
HETATM    3  C   UNK N   1      82.606  23.411  45.227  0.00  0.00     0.010 A 
HETATM    4  C   UNK N   1      83.293  22.211  45.437  0.00  0.00     0.012 A 
HETATM    5  C   UNK N   1      83.030  21.429  46.568  0.00  0.00    -0.036 A 
HETATM    6  C   UNK N   1      82.086  21.885  47.496  0.00  0.00     0.012 A 
HETATM    7  C   UNK N   1      81.398  23.084  47.287  0.00  0.00     0.010 A 
BRANCH   5   8
HETATM    8  C   UNK N   1      83.746  20.175  46.842  0.00  0.00     0.016 C 
HETATM    9  C   UNK N   1      83.258  18.958  46.555  0.00  0.00     0.058 C 
BRANCH   9  10
HETATM   10  C   UNK N   1      83.979  17.714  46.845  0.00  0.00     0.159 C 
HETATM   11  N   UNK N   1      84.352  17.335  48.021  0.00  0.00    -0.248 N 
ATOM     12  HN  UNK N   1      84.186  17.862  48.880  1.00  0.00     0.196 HD
BRANCH  11  13
HETATM   13  O   UNK N   1      85.018  16.098  47.962  0.00  0.00    -0.288 OA
HETATM   14  H   UNK N   1      85.660  16.176  48.696  0.00  0.00     0.244 HD
ENDBRANCH  11  13
BRANCH  10  15
HETATM   15  O   UNK N   1      84.242  16.954  45.771  0.00  0.00    -0.345 OA
HETATM   16  H   UNK N   1      83.389  16.852  45.311  0.00  0.00     0.219 HD
ENDBRANCH  10  15
ENDBRANCH   9  10
ENDBRANCH   5   8
ENDBRANCH   1   2
BRANCH   1  17
HETATM   17  N   UNK N   1      81.307  25.848  44.687  0.00  0.00     0.087 N 
HETATM   18  H   UNK N   1      82.206  25.477  44.386  0.00  0.00     0.316 HD
BRANCH  17  19
HETATM   19  C   UNK N   1      81.442  27.298  44.892  0.00  0.00     0.274 C 
BRANCH  19  20
HETATM   20  C   UNK N   1      82.901  27.738  44.697  0.00  0.00     0.071 C 
BRANCH  20  21
HETATM   21  C   UNK N   1      82.999  29.082  44.040  0.00  0.00    -0.022 A 
HETATM   22  C   UNK N   1      83.702  29.384  42.828  0.00  0.00    -0.001 A 
HETATM   23  C   UNK N   1      83.542  30.747  42.581  0.00  0.00     0.043 A 
HETATM   24  C   UNK N   1      84.463  28.623  41.917  0.00  0.00     0.014 A 
HETATM   25  C   UNK N   1      84.103  31.388  41.470  0.00  0.00     0.030 A 
HETATM   26  N   UNK N   1      82.772  31.254  43.599  0.00  0.00    -0.359 N 
HETATM   27  C   UNK N   1      84.853  30.610  40.583  0.00  0.00     0.002 A 
HETATM   28  C   UNK N   1      85.032  29.246  40.800  0.00  0.00     0.001 A 
HETATM   29  C   UNK N   1      82.438  30.267  44.492  0.00  0.00     0.013 A 
HETATM   30  H   UNK N   1      82.497  32.224  43.674  0.00  0.00     0.166 HD
HETATM   31  C   UNK N   1      81.614  30.551  45.696  0.00  0.00     0.068 C 
ENDBRANCH  20  21
ENDBRANCH  19  20
ENDBRANCH  17  19
ENDBRANCH   1  17
TORSDOF 9
ENDMDL
MODEL 9
REMARK VINA RESULT:      -8.0     29.915     31.966
REMARK  9 active torsions:
REMARK  status: ('A' for Active; 'I' for Inactive)
REMARK    1  A    between atoms: O_1  and  N_2 
REMARK    2  A    between atoms: C_4  and  O_5 
REMARK    3  A    between atoms: C_4  and  C_6 
REMARK    4  A    between atoms: C_7  and  C_8 
REMARK    5  A    between atoms: C_13  and  C_14 
REMARK    6  A    between atoms: C_14  and  N_15 
REMARK    7  A    between atoms: N_15  and  C_16 
REMARK    8  A    between atoms: C_16  and  C_17 
REMARK    9  A    between atoms: C_17  and  C_18 
ROOT
HETATM    1  C   UNK N   1      74.478   4.722  13.152  0.00  0.00     0.308 C 
ENDROOT
BRANCH   1   2
HETATM    2  C   UNK N   1      75.971   4.937  13.234  0.00  0.00    -0.030 A 
HETATM    3  C   UNK N   1      76.791   4.010  13.891  0.00  0.00     0.010 A 
HETATM    4  C   UNK N   1      78.174   4.203  13.961  0.00  0.00     0.012 A 
HETATM    5  C   UNK N   1      78.766   5.331  13.381  0.00  0.00    -0.036 A 
HETATM    6  C   UNK N   1      77.948   6.248  12.708  0.00  0.00     0.012 A 
HETATM    7  C   UNK N   1      76.565   6.057  12.638  0.00  0.00     0.010 A 
BRANCH   5   8
HETATM    8  C   UNK N   1      80.217   5.561  13.408  0.00  0.00     0.016 C 
HETATM    9  C   UNK N   1      81.100   4.703  13.940  0.00  0.00     0.058 C 
BRANCH   9  10
HETATM   10  C   UNK N   1      82.546   4.952  13.970  0.00  0.00     0.159 C 
HETATM   11  N   UNK N   1      83.428   4.118  14.409  0.00  0.00    -0.248 N 
ATOM     12  HN  UNK N   1      83.215   3.193  14.784  1.00  0.00     0.196 HD
BRANCH  11  13
HETATM   13  O   UNK N   1      84.723   4.656  14.301  0.00  0.00    -0.288 OA
HETATM   14  H   UNK N   1      84.538   5.604  14.151  0.00  0.00     0.244 HD
ENDBRANCH  11  13
BRANCH  10  15
HETATM   15  O   UNK N   1      82.920   6.149  13.494  0.00  0.00    -0.345 OA
HETATM   16  H   UNK N   1      83.222   6.654  14.271  0.00  0.00     0.219 HD
ENDBRANCH  10  15
ENDBRANCH   9  10
ENDBRANCH   5   8
ENDBRANCH   1   2
BRANCH   1  17
HETATM   17  N   UNK N   1      73.710   5.591  14.051  0.00  0.00     0.087 N 
HETATM   18  H   UNK N   1      74.066   6.541  13.959  0.00  0.00     0.316 HD
BRANCH  17  19
HETATM   19  C   UNK N   1      73.840   5.175  15.456  0.00  0.00     0.274 C 
BRANCH  19  20
HETATM   20  C   UNK N   1      74.120   6.387  16.355  0.00  0.00     0.071 C 
BRANCH  20  21
HETATM   21  C   UNK N   1      75.538   6.859  16.235  0.00  0.00    -0.022 A 
HETATM   22  C   UNK N   1      76.694   6.224  16.795  0.00  0.00    -0.001 A 
HETATM   23  C   UNK N   1      77.803   6.995  16.450  0.00  0.00     0.043 A 
HETATM   24  C   UNK N   1      76.900   5.061  17.565  0.00  0.00     0.014 A 
HETATM   25  C   UNK N   1      79.108   6.664  16.837  0.00  0.00     0.030 A 
HETATM   26  N   UNK N   1      77.342   8.056  15.710  0.00  0.00    -0.359 N 
HETATM   27  C   UNK N   1      79.283   5.506  17.601  0.00  0.00     0.002 A 
HETATM   28  C   UNK N   1      78.197   4.713  17.961  0.00  0.00     0.001 A 
HETATM   29  C   UNK N   1      75.978   7.996  15.573  0.00  0.00     0.013 A 
HETATM   30  H   UNK N   1      77.934   8.781  15.326  0.00  0.00     0.166 HD
HETATM   31  C   UNK N   1      75.224   9.032  14.822  0.00  0.00     0.068 C 
ENDBRANCH  20  21
ENDBRANCH  19  20
ENDBRANCH  17  19
ENDBRANCH   1  17
TORSDOF 9
ENDMDL
