MODEL 1
REMARK VINA RESULT:      -7.2      0.000      0.000
REMARK  7 active torsions:
REMARK  status: ('A' for Active; 'I' for Inactive)
REMARK       I    between atoms: C_6  and  N_11 
REMARK    1  A    between atoms: N_13  and  C_14 
REMARK    2  A    between atoms: C_14  and  C_15 
REMARK    3  A    between atoms: C_15  and  C_16 
REMARK    4  A    between atoms: C_16  and  C_17 
REMARK    5  A    between atoms: C_16  and  C_18 
REMARK    6  A    between atoms: C_17  and  O_19 
REMARK    7  A    between atoms: C_18  and  O_20 
ROOT
HETATM    1  O   UNK N   1      94.180  13.102  38.488  0.00  0.00    -0.265 OA
HETATM    2  C   UNK N   1      94.529  13.606  39.549  0.00  0.00     0.290 A 
HETATM    3  N   UNK N   1      95.859  13.967  39.804  0.00  0.00    -0.154 N 
ATOM      4  HN  UNK N   1      96.572  13.814  39.092  1.00  0.00     0.187 HD
HETATM    5  C   UNK N   1      93.588  13.875  40.643  0.00  0.00     0.147 A 
HETATM    6  C   UNK N   1      96.184  14.500  40.945  0.00  0.00     0.680 A 
HETATM    7  N   UNK N   1      92.230  13.652  40.732  0.00  0.00    -0.345 N 
ATOM      8  HN  UNK N   1      91.619  13.244  40.025  1.00  0.00     0.167 HD
HETATM    9  C   UNK N   1      94.044  14.440  41.805  0.00  0.00     0.156 A 
HETATM   10  N   UNK N   1      95.332  14.764  41.989  0.00  0.00    -0.174 N 
HETATM   11  N   UNK N   1      97.466  14.845  41.183  0.00  0.00    -0.234 N 
HETATM   12  C   UNK N   1      91.893  14.084  41.933  0.00  0.00     0.185 A 
HETATM   13  N   UNK N   1      92.973  14.576  42.626  0.00  0.00    -0.327 N 
HETATM   14  H   UNK N   1      95.698  15.187  42.829  0.00  0.00     0.186 HD
HETATM   15  H   UNK N   1      98.136  14.669  40.441  0.00  0.00     0.174 HD
HETATM   16  H   UNK N   1      97.802  15.246  42.043  0.00  0.00     0.174 HD
ENDROOT
BRANCH  13  17
HETATM   17  C   UNK N   1      92.936  15.111  43.971  0.00  0.00     0.132 C 
BRANCH  17  18
HETATM   18  C   UNK N   1      92.705  16.620  43.978  0.00  0.00     0.029 C 
BRANCH  18  19
HETATM   19  C   UNK N   1      91.356  17.031  44.600  0.00  0.00     0.034 C 
BRANCH  19  20
HETATM   20  C   UNK N   1      90.190  16.122  44.183  0.00  0.00     0.170 C 
BRANCH  20  21
HETATM   21  O   UNK N   1      89.505  16.682  43.070  0.00  0.00    -0.400 OA
HETATM   22  H   UNK N   1      89.192  15.937  42.524  0.00  0.00     0.209 HD
ENDBRANCH  20  21
ENDBRANCH  19  20
BRANCH  19  23
HETATM   23  C   UNK N   1      91.054  18.490  44.233  0.00  0.00     0.170 C 
BRANCH  23  24
HETATM   24  O   UNK N   1      91.171  19.303  45.396  0.00  0.00    -0.400 OA
HETATM   25  H   UNK N   1      92.040  19.110  45.789  0.00  0.00     0.209 HD
ENDBRANCH  23  24
ENDBRANCH  19  23
ENDBRANCH  18  19
ENDBRANCH  17  18
ENDBRANCH  13  17
TORSDOF 7
ENDMDL
MODEL 2
REMARK VINA RESULT:      -6.9     11.856     13.092
REMARK  7 active torsions:
REMARK  status: ('A' for Active; 'I' for Inactive)
REMARK       I    between atoms: C_6  and  N_11 
REMARK    1  A    between atoms: N_13  and  C_14 
REMARK    2  A    between atoms: C_14  and  C_15 
REMARK    3  A    between atoms: C_15  and  C_16 
REMARK    4  A    between atoms: C_16  and  C_17 
REMARK    5  A    between atoms: C_16  and  C_18 
REMARK    6  A    between atoms: C_17  and  O_19 
REMARK    7  A    between atoms: C_18  and  O_20 
ROOT
HETATM    1  O   UNK N   1      88.971  26.302  45.809  0.00  0.00    -0.265 OA
HETATM    2  C   UNK N   1      89.984  25.967  46.414  0.00  0.00     0.290 A 
HETATM    3  N   UNK N   1      89.933  25.323  47.657  0.00  0.00    -0.154 N 
ATOM      4  HN  UNK N   1      89.032  25.118  48.087  1.00  0.00     0.187 HD
HETATM    5  C   UNK N   1      91.333  26.210  45.890  0.00  0.00     0.147 A 
HETATM    6  C   UNK N   1      91.034  24.985  48.263  0.00  0.00     0.680 A 
HETATM    7  N   UNK N   1      91.745  26.806  44.717  0.00  0.00    -0.345 N 
ATOM      8  HN  UNK N   1      91.160  27.200  43.980  1.00  0.00     0.167 HD
HETATM    9  C   UNK N   1      92.424  25.810  46.617  0.00  0.00     0.156 A 
HETATM   10  N   UNK N   1      92.310  25.197  47.804  0.00  0.00    -0.174 N 
HETATM   11  N   UNK N   1      90.977  24.366  49.460  0.00  0.00    -0.234 N 
HETATM   12  C   UNK N   1      93.064  26.756  44.755  0.00  0.00     0.185 A 
HETATM   13  N   UNK N   1      93.524  26.153  45.902  0.00  0.00    -0.327 N 
HETATM   14  H   UNK N   1      93.092  24.885  48.360  0.00  0.00     0.186 HD
HETATM   15  H   UNK N   1      90.055  24.187  49.843  0.00  0.00     0.174 HD
HETATM   16  H   UNK N   1      91.779  24.087  50.000  0.00  0.00     0.174 HD
ENDROOT
BRANCH  13  17
HETATM   17  C   UNK N   1      94.916  25.957  46.247  0.00  0.00     0.132 C 
BRANCH  17  18
HETATM   18  C   UNK N   1      95.634  27.281  46.497  0.00  0.00     0.029 C 
BRANCH  18  19
HETATM   19  C   UNK N   1      95.515  27.779  47.951  0.00  0.00     0.034 C 
BRANCH  19  20
HETATM   20  C   UNK N   1      95.288  26.648  48.965  0.00  0.00     0.170 C 
BRANCH  20  21
HETATM   21  O   UNK N   1      94.092  26.879  49.699  0.00  0.00    -0.400 OA
HETATM   22  H   UNK N   1      94.351  27.303  50.538  0.00  0.00     0.209 HD
ENDBRANCH  20  21
ENDBRANCH  19  20
BRANCH  19  23
HETATM   23  C   UNK N   1      94.383  28.812  48.039  0.00  0.00     0.170 C 
BRANCH  23  24
HETATM   24  O   UNK N   1      94.758  29.846  48.942  0.00  0.00    -0.400 OA
HETATM   25  H   UNK N   1      93.952  30.355  49.139  0.00  0.00     0.209 HD
ENDBRANCH  23  24
ENDBRANCH  19  23
ENDBRANCH  18  19
ENDBRANCH  17  18
ENDBRANCH  13  17
TORSDOF 7
ENDMDL
MODEL 3
REMARK VINA RESULT:      -6.8     36.539     37.344
REMARK  7 active torsions:
REMARK  status: ('A' for Active; 'I' for Inactive)
REMARK       I    between atoms: C_6  and  N_11 
REMARK    1  A    between atoms: N_13  and  C_14 
REMARK    2  A    between atoms: C_14  and  C_15 
REMARK    3  A    between atoms: C_15  and  C_16 
REMARK    4  A    between atoms: C_16  and  C_17 
REMARK    5  A    between atoms: C_16  and  C_18 
REMARK    6  A    between atoms: C_17  and  O_19 
REMARK    7  A    between atoms: C_18  and  O_20 
ROOT
HETATM    1  O   UNK N   1      86.303  35.950  12.767  0.00  0.00    -0.265 OA
HETATM    2  C   UNK N   1      85.237  36.317  13.248  0.00  0.00     0.290 A 
HETATM    3  N   UNK N   1      84.002  35.896  12.738  0.00  0.00    -0.154 N 
ATOM      4  HN  UNK N   1      83.971  35.262  11.941  1.00  0.00     0.187 HD
HETATM    5  C   UNK N   1      85.161  37.228  14.397  0.00  0.00     0.147 A 
HETATM    6  C   UNK N   1      82.895  36.311  13.281  0.00  0.00     0.680 A 
HETATM    7  N   UNK N   1      86.161  37.824  15.136  0.00  0.00    -0.345 N 
ATOM      8  HN  UNK N   1      87.168  37.734  15.006  1.00  0.00     0.167 HD
HETATM    9  C   UNK N   1      83.936  37.600  14.886  0.00  0.00     0.156 A 
HETATM   10  N   UNK N   1      82.786  37.162  14.353  0.00  0.00    -0.174 N 
HETATM   11  N   UNK N   1      81.709  35.901  12.784  0.00  0.00    -0.234 N 
HETATM   12  C   UNK N   1      85.529  38.537  16.050  0.00  0.00     0.185 A 
HETATM   13  N   UNK N   1      84.164  38.429  15.935  0.00  0.00    -0.327 N 
HETATM   14  H   UNK N   1      81.870  37.411  14.694  0.00  0.00     0.186 HD
HETATM   15  H   UNK N   1      81.736  35.271  11.989  0.00  0.00     0.174 HD
HETATM   16  H   UNK N   1      80.811  36.188  13.134  0.00  0.00     0.174 HD
ENDROOT
BRANCH  13  17
HETATM   17  C   UNK N   1      83.194  39.098  16.777  0.00  0.00     0.132 C 
BRANCH  17  18
HETATM   18  C   UNK N   1      82.856  40.495  16.260  0.00  0.00     0.029 C 
BRANCH  18  19
HETATM   19  C   UNK N   1      81.659  40.517  15.290  0.00  0.00     0.034 C 
BRANCH  19  20
HETATM   20  C   UNK N   1      81.211  41.935  14.907  0.00  0.00     0.170 C 
BRANCH  20  21
HETATM   21  O   UNK N   1      79.822  41.945  14.598  0.00  0.00    -0.400 OA
HETATM   22  H   UNK N   1      79.719  41.485  13.744  0.00  0.00     0.209 HD
ENDBRANCH  20  21
ENDBRANCH  19  20
BRANCH  19  23
HETATM   23  C   UNK N   1      80.492  39.737  15.911  0.00  0.00     0.170 C 
BRANCH  23  24
HETATM   24  O   UNK N   1      80.331  38.501  15.224  0.00  0.00    -0.400 OA
HETATM   25  H   UNK N   1      80.806  37.826  15.741  0.00  0.00     0.209 HD
ENDBRANCH  23  24
ENDBRANCH  19  23
ENDBRANCH  18  19
ENDBRANCH  17  18
ENDBRANCH  13  17
TORSDOF 7
ENDMDL
MODEL 4
REMARK VINA RESULT:      -6.8      3.362      6.387
REMARK  7 active torsions:
REMARK  status: ('A' for Active; 'I' for Inactive)
REMARK       I    between atoms: C_6  and  N_11 
REMARK    1  A    between atoms: N_13  and  C_14 
REMARK    2  A    between atoms: C_14  and  C_15 
REMARK    3  A    between atoms: C_15  and  C_16 
REMARK    4  A    between atoms: C_16  and  C_17 
REMARK    5  A    between atoms: C_16  and  C_18 
REMARK    6  A    between atoms: C_17  and  O_19 
REMARK    7  A    between atoms: C_18  and  O_20 
ROOT
HETATM    1  O   UNK N   1      90.876  15.412  46.346  0.00  0.00    -0.265 OA
HETATM    2  C   UNK N   1      90.830  15.927  45.234  0.00  0.00     0.290 A 
HETATM    3  N   UNK N   1      90.864  17.315  45.051  0.00  0.00    -0.154 N 
ATOM      4  HN  UNK N   1      90.931  17.933  45.858  1.00  0.00     0.187 HD
HETATM    5  C   UNK N   1      90.733  15.136  44.001  0.00  0.00     0.147 A 
HETATM    6  C   UNK N   1      90.812  17.818  43.852  0.00  0.00     0.680 A 
HETATM    7  N   UNK N   1      90.681  13.771  43.814  0.00  0.00    -0.345 N 
ATOM      8  HN  UNK N   1      90.699  13.044  44.529  1.00  0.00     0.167 HD
HETATM    9  C   UNK N   1      90.684  15.774  42.789  0.00  0.00     0.156 A 
HETATM   10  N   UNK N   1      90.721  17.110  42.679  0.00  0.00    -0.174 N 
HETATM   11  N   UNK N   1      90.846  19.156  43.683  0.00  0.00    -0.234 N 
HETATM   12  C   UNK N   1      90.603  13.610  42.506  0.00  0.00     0.185 A 
HETATM   13  N   UNK N   1      90.602  14.811  41.838  0.00  0.00    -0.327 N 
HETATM   14  H   UNK N   1      90.693  17.609  41.802  0.00  0.00     0.186 HD
HETATM   15  H   UNK N   1      90.912  19.724  44.521  0.00  0.00     0.174 HD
HETATM   16  H   UNK N   1      90.794  19.623  42.794  0.00  0.00     0.174 HD
ENDROOT
BRANCH  13  17
HETATM   17  C   UNK N   1      90.515  14.974  40.402  0.00  0.00     0.132 C 
BRANCH  17  18
HETATM   18  C   UNK N   1      91.734  14.395  39.687  0.00  0.00     0.029 C 
BRANCH  18  19
HETATM   19  C   UNK N   1      91.421  13.860  38.276  0.00  0.00     0.034 C 
BRANCH  19  20
HETATM   20  C   UNK N   1      90.363  12.747  38.268  0.00  0.00     0.170 C 
BRANCH  20  21
HETATM   21  O   UNK N   1      89.224  13.158  37.521  0.00  0.00    -0.400 OA
HETATM   22  H   UNK N   1      89.556  13.579  36.706  0.00  0.00     0.209 HD
ENDBRANCH  20  21
ENDBRANCH  19  20
BRANCH  19  23
HETATM   23  C   UNK N   1      92.720  13.367  37.624  0.00  0.00     0.170 C 
BRANCH  23  24
HETATM   24  O   UNK N   1      93.835  13.908  38.325  0.00  0.00    -0.400 OA
HETATM   25  H   UNK N   1      93.827  14.869  38.170  0.00  0.00     0.209 HD
ENDBRANCH  23  24
ENDBRANCH  19  23
ENDBRANCH  18  19
ENDBRANCH  17  18
ENDBRANCH  13  17
TORSDOF 7
ENDMDL
MODEL 5
REMARK VINA RESULT:      -6.8      3.101      6.439
REMARK  7 active torsions:
REMARK  status: ('A' for Active; 'I' for Inactive)
REMARK       I    between atoms: C_6  and  N_11 
REMARK    1  A    between atoms: N_13  and  C_14 
REMARK    2  A    between atoms: C_14  and  C_15 
REMARK    3  A    between atoms: C_15  and  C_16 
REMARK    4  A    between atoms: C_16  and  C_17 
REMARK    5  A    between atoms: C_16  and  C_18 
REMARK    6  A    between atoms: C_17  and  O_19 
REMARK    7  A    between atoms: C_18  and  O_20 
ROOT
HETATM    1  O   UNK N   1      88.092  14.982  44.993  0.00  0.00    -0.265 OA
HETATM    2  C   UNK N   1      89.007  15.205  44.209  0.00  0.00     0.290 A 
HETATM    3  N   UNK N   1      90.174  15.879  44.593  0.00  0.00    -0.154 N 
ATOM      4  HN  UNK N   1      90.282  16.200  45.555  1.00  0.00     0.187 HD
HETATM    5  C   UNK N   1      88.961  14.788  42.802  0.00  0.00     0.147 A 
HETATM    6  C   UNK N   1      91.120  16.093  43.727  0.00  0.00     0.680 A 
HETATM    7  N   UNK N   1      87.985  14.114  42.098  0.00  0.00    -0.345 N 
ATOM      8  HN  UNK N   1      87.088  13.777  42.447  1.00  0.00     0.167 HD
HETATM    9  C   UNK N   1      90.019  15.070  41.978  0.00  0.00     0.156 A 
HETATM   10  N   UNK N   1      91.111  15.719  42.406  0.00  0.00    -0.174 N 
HETATM   11  N   UNK N   1      92.241  16.743  44.105  0.00  0.00    -0.234 N 
HETATM   12  C   UNK N   1      88.466  14.001  40.874  0.00  0.00     0.185 A 
HETATM   13  N   UNK N   1      89.710  14.572  40.754  0.00  0.00    -0.327 N 
HETATM   14  H   UNK N   1      91.908  15.935  41.826  0.00  0.00     0.186 HD
HETATM   15  H   UNK N   1      92.296  17.041  45.073  0.00  0.00     0.174 HD
HETATM   16  H   UNK N   1      93.010  16.962  43.494  0.00  0.00     0.174 HD
ENDROOT
BRANCH  13  17
HETATM   17  C   UNK N   1      90.497  14.624  39.540  0.00  0.00     0.132 C 
BRANCH  17  18
HETATM   18  C   UNK N   1      91.454  13.438  39.429  0.00  0.00     0.029 C 
BRANCH  18  19
HETATM   19  C   UNK N   1      92.824  13.810  38.829  0.00  0.00     0.034 C 
BRANCH  19  20
HETATM   20  C   UNK N   1      93.165  13.022  37.556  0.00  0.00     0.170 C 
BRANCH  20  21
HETATM   21  O   UNK N   1      94.320  12.220  37.769  0.00  0.00    -0.400 OA
HETATM   22  H   UNK N   1      94.455  12.168  38.734  0.00  0.00     0.209 HD
ENDBRANCH  20  21
ENDBRANCH  19  20
BRANCH  19  23
HETATM   23  C   UNK N   1      93.913  13.607  39.891  0.00  0.00     0.170 C 
BRANCH  23  24
HETATM   24  O   UNK N   1      95.111  14.247  39.467  0.00  0.00    -0.400 OA
HETATM   25  H   UNK N   1      95.345  13.864  38.603  0.00  0.00     0.209 HD
ENDBRANCH  23  24
ENDBRANCH  19  23
ENDBRANCH  18  19
ENDBRANCH  17  18
ENDBRANCH  13  17
TORSDOF 7
ENDMDL
MODEL 6
REMARK VINA RESULT:      -6.6     31.350     33.510
REMARK  7 active torsions:
REMARK  status: ('A' for Active; 'I' for Inactive)
REMARK       I    between atoms: C_6  and  N_11 
REMARK    1  A    between atoms: N_13  and  C_14 
REMARK    2  A    between atoms: C_14  and  C_15 
REMARK    3  A    between atoms: C_15  and  C_16 
REMARK    4  A    between atoms: C_16  and  C_17 
REMARK    5  A    between atoms: C_16  and  C_18 
REMARK    6  A    between atoms: C_17  and  O_19 
REMARK    7  A    between atoms: C_18  and  O_20 
ROOT
HETATM    1  O   UNK N   1      78.519   9.322  15.761  0.00  0.00    -0.265 OA
HETATM    2  C   UNK N   1      77.982   8.319  16.216  0.00  0.00     0.290 A 
HETATM    3  N   UNK N   1      78.653   7.432  17.067  0.00  0.00    -0.154 N 
ATOM      4  HN  UNK N   1      79.622   7.612  17.328  1.00  0.00     0.187 HD
HETATM    5  C   UNK N   1      76.591   7.960  15.909  0.00  0.00     0.147 A 
HETATM    6  C   UNK N   1      78.042   6.379  17.527  0.00  0.00     0.680 A 
HETATM    7  N   UNK N   1      75.654   8.597  15.123  0.00  0.00    -0.345 N 
ATOM      8  HN  UNK N   1      75.769   9.462  14.595  1.00  0.00     0.167 HD
HETATM    9  C   UNK N   1      76.051   6.823  16.451  0.00  0.00     0.156 A 
HETATM   10  N   UNK N   1      76.746   6.012  17.261  0.00  0.00    -0.174 N 
HETATM   11  N   UNK N   1      78.695   5.529  18.346  0.00  0.00    -0.234 N 
HETATM   12  C   UNK N   1      74.574   7.842  15.204  0.00  0.00     0.185 A 
HETATM   13  N   UNK N   1      74.771   6.744  16.008  0.00  0.00    -0.327 N 
HETATM   14  H   UNK N   1      76.375   5.173  17.680  0.00  0.00     0.186 HD
HETATM   15  H   UNK N   1      79.657   5.756  18.573  0.00  0.00     0.174 HD
HETATM   16  H   UNK N   1      78.301   4.687  18.730  0.00  0.00     0.174 HD
ENDROOT
BRANCH  13  17
HETATM   17  C   UNK N   1      73.787   5.721  16.288  0.00  0.00     0.132 C 
BRANCH  17  18
HETATM   18  C   UNK N   1      73.119   5.208  15.014  0.00  0.00     0.029 C 
BRANCH  18  19
HETATM   19  C   UNK N   1      73.872   4.035  14.356  0.00  0.00     0.034 C 
BRANCH  19  20
HETATM   20  C   UNK N   1      73.605   3.908  12.849  0.00  0.00     0.170 C 
BRANCH  20  21
HETATM   21  O   UNK N   1      72.359   3.260  12.624  0.00  0.00    -0.400 OA
HETATM   22  H   UNK N   1      72.374   2.430  13.135  0.00  0.00     0.209 HD
ENDBRANCH  20  21
ENDBRANCH  19  20
BRANCH  19  23
HETATM   23  C   UNK N   1      73.504   2.731  15.076  0.00  0.00     0.170 C 
BRANCH  23  24
HETATM   24  O   UNK N   1      72.094   2.674  15.257  0.00  0.00    -0.400 OA
HETATM   25  H   UNK N   1      71.735   3.524  14.948  0.00  0.00     0.209 HD
ENDBRANCH  23  24
ENDBRANCH  19  23
ENDBRANCH  18  19
ENDBRANCH  17  18
ENDBRANCH  13  17
TORSDOF 7
ENDMDL
MODEL 7
REMARK VINA RESULT:      -6.6      1.358      2.807
REMARK  7 active torsions:
REMARK  status: ('A' for Active; 'I' for Inactive)
REMARK       I    between atoms: C_6  and  N_11 
REMARK    1  A    between atoms: N_13  and  C_14 
REMARK    2  A    between atoms: C_14  and  C_15 
REMARK    3  A    between atoms: C_15  and  C_16 
REMARK    4  A    between atoms: C_16  and  C_17 
REMARK    5  A    between atoms: C_16  and  C_18 
REMARK    6  A    between atoms: C_17  and  O_19 
REMARK    7  A    between atoms: C_18  and  O_20 
ROOT
HETATM    1  O   UNK N   1      96.379  12.827  39.809  0.00  0.00    -0.265 OA
HETATM    2  C   UNK N   1      95.266  13.274  40.064  0.00  0.00     0.290 A 
HETATM    3  N   UNK N   1      94.251  13.346  39.102  0.00  0.00    -0.154 N 
ATOM      4  HN  UNK N   1      94.426  13.019  38.152  1.00  0.00     0.187 HD
HETATM    5  C   UNK N   1      94.902  13.771  41.397  0.00  0.00     0.147 A 
HETATM    6  C   UNK N   1      93.085  13.828  39.417  0.00  0.00     0.680 A 
HETATM    7  N   UNK N   1      95.640  13.845  42.559  0.00  0.00    -0.345 N 
ATOM      8  HN  UNK N   1      96.608  13.557  42.700  1.00  0.00     0.167 HD
HETATM    9  C   UNK N   1      93.640  14.259  41.615  0.00  0.00     0.156 A 
HETATM   10  N   UNK N   1      92.709  14.302  40.650  0.00  0.00    -0.174 N 
HETATM   11  N   UNK N   1      92.112  13.895  38.485  0.00  0.00    -0.234 N 
HETATM   12  C   UNK N   1      94.819  14.369  43.450  0.00  0.00     0.185 A 
HETATM   13  N   UNK N   1      93.582  14.639  42.915  0.00  0.00    -0.327 N 
HETATM   14  H   UNK N   1      91.771  14.648  40.781  0.00  0.00     0.186 HD
HETATM   15  H   UNK N   1      92.340  13.557  37.556  0.00  0.00     0.174 HD
HETATM   16  H   UNK N   1      91.191  14.268  38.643  0.00  0.00     0.174 HD
ENDROOT
BRANCH  13  17
HETATM   17  C   UNK N   1      92.468  15.226  43.630  0.00  0.00     0.132 C 
BRANCH  17  18
HETATM   18  C   UNK N   1      92.564  16.750  43.681  0.00  0.00     0.029 C 
BRANCH  18  19
HETATM   19  C   UNK N   1      91.202  17.455  43.524  0.00  0.00     0.034 C 
BRANCH  19  20
HETATM   20  C   UNK N   1      91.117  18.791  44.277  0.00  0.00     0.170 C 
BRANCH  20  21
HETATM   21  O   UNK N   1      90.271  19.696  43.579  0.00  0.00    -0.400 OA
HETATM   22  H   UNK N   1      90.047  20.412  44.202  0.00  0.00     0.209 HD
ENDBRANCH  20  21
ENDBRANCH  19  20
BRANCH  19  23
HETATM   23  C   UNK N   1      90.087  16.508  43.986  0.00  0.00     0.170 C 
BRANCH  23  24
HETATM   24  O   UNK N   1      89.156  16.323  42.926  0.00  0.00    -0.400 OA
HETATM   25  H   UNK N   1      88.504  15.668  43.234  0.00  0.00     0.209 HD
ENDBRANCH  23  24
ENDBRANCH  19  23
ENDBRANCH  18  19
ENDBRANCH  17  18
ENDBRANCH  13  17
TORSDOF 7
ENDMDL
MODEL 8
REMARK VINA RESULT:      -6.6      3.717      6.189
REMARK  7 active torsions:
REMARK  status: ('A' for Active; 'I' for Inactive)
REMARK       I    between atoms: C_6  and  N_11 
REMARK    1  A    between atoms: N_13  and  C_14 
REMARK    2  A    between atoms: C_14  and  C_15 
REMARK    3  A    between atoms: C_15  and  C_16 
REMARK    4  A    between atoms: C_16  and  C_17 
REMARK    5  A    between atoms: C_16  and  C_18 
REMARK    6  A    between atoms: C_17  and  O_19 
REMARK    7  A    between atoms: C_18  and  O_20 
ROOT
HETATM    1  O   UNK N   1      87.181  13.157  41.430  0.00  0.00    -0.265 OA
HETATM    2  C   UNK N   1      88.223  13.789  41.287  0.00  0.00     0.290 A 
HETATM    3  N   UNK N   1      88.576  14.850  42.130  0.00  0.00    -0.154 N 
ATOM      4  HN  UNK N   1      87.958  15.119  42.895  1.00  0.00     0.187 HD
HETATM    5  C   UNK N   1      89.187  13.488  40.222  0.00  0.00     0.147 A 
HETATM    6  C   UNK N   1      89.692  15.492  41.940  0.00  0.00     0.680 A 
HETATM    7  N   UNK N   1      89.161  12.526  39.234  0.00  0.00    -0.345 N 
ATOM      8  HN  UNK N   1      88.436  11.829  39.064  1.00  0.00     0.167 HD
HETATM    9  C   UNK N   1      90.333  14.233  40.116  0.00  0.00     0.156 A 
HETATM   10  N   UNK N   1      90.615  15.239  40.956  0.00  0.00    -0.174 N 
HETATM   11  N   UNK N   1      90.025  16.513  42.756  0.00  0.00    -0.234 N 
HETATM   12  C   UNK N   1      90.280  12.704  38.557  0.00  0.00     0.185 A 
HETATM   13  N   UNK N   1      91.029  13.740  39.063  0.00  0.00    -0.327 N 
HETATM   14  H   UNK N   1      91.452  15.802  40.909  0.00  0.00     0.186 HD
HETATM   15  H   UNK N   1      89.374  16.740  43.500  0.00  0.00     0.174 HD
HETATM   16  H   UNK N   1      90.859  17.069  42.667  0.00  0.00     0.174 HD
ENDROOT
BRANCH  13  17
HETATM   17  C   UNK N   1      92.300  14.193  38.536  0.00  0.00     0.132 C 
BRANCH  17  18
HETATM   18  C   UNK N   1      93.457  13.311  39.002  0.00  0.00     0.029 C 
BRANCH  18  19
HETATM   19  C   UNK N   1      94.527  14.077  39.805  0.00  0.00     0.034 C 
BRANCH  19  20
HETATM   20  C   UNK N   1      95.907  13.404  39.778  0.00  0.00     0.170 C 
BRANCH  20  21
HETATM   21  O   UNK N   1      96.930  14.386  39.666  0.00  0.00    -0.400 OA
HETATM   22  H   UNK N   1      96.828  14.989  40.425  0.00  0.00     0.209 HD
ENDBRANCH  20  21
ENDBRANCH  19  20
BRANCH  19  23
HETATM   23  C   UNK N   1      94.044  14.250  41.251  0.00  0.00     0.170 C 
BRANCH  23  24
HETATM   24  O   UNK N   1      94.894  15.172  41.925  0.00  0.00    -0.400 OA
HETATM   25  H   UNK N   1      94.395  15.510  42.689  0.00  0.00     0.209 HD
ENDBRANCH  23  24
ENDBRANCH  19  23
ENDBRANCH  18  19
ENDBRANCH  17  18
ENDBRANCH  13  17
TORSDOF 7
ENDMDL
MODEL 9
REMARK VINA RESULT:      -6.5      2.327      6.175
REMARK  7 active torsions:
REMARK  status: ('A' for Active; 'I' for Inactive)
REMARK       I    between atoms: C_6  and  N_11 
REMARK    1  A    between atoms: N_13  and  C_14 
REMARK    2  A    between atoms: C_14  and  C_15 
REMARK    3  A    between atoms: C_15  and  C_16 
REMARK    4  A    between atoms: C_16  and  C_17 
REMARK    5  A    between atoms: C_16  and  C_18 
REMARK    6  A    between atoms: C_17  and  O_19 
REMARK    7  A    between atoms: C_18  and  O_20 
ROOT
HETATM    1  O   UNK N   1      90.833  17.012  45.350  0.00  0.00    -0.265 OA
HETATM    2  C   UNK N   1      90.750  16.242  44.400  0.00  0.00     0.290 A 
HETATM    3  N   UNK N   1      89.521  15.897  43.823  0.00  0.00    -0.154 N 
ATOM      4  HN  UNK N   1      88.657  16.291  44.193  1.00  0.00     0.187 HD
HETATM    5  C   UNK N   1      91.927  15.616  43.786  0.00  0.00     0.147 A 
HETATM    6  C   UNK N   1      89.480  15.075  42.815  0.00  0.00     0.680 A 
HETATM    7  N   UNK N   1      93.266  15.732  44.093  0.00  0.00    -0.345 N 
ATOM      8  HN  UNK N   1      93.689  16.294  44.832  1.00  0.00     0.167 HD
HETATM    9  C   UNK N   1      91.764  14.763  42.726  0.00  0.00     0.156 A 
HETATM   10  N   UNK N   1      90.558  14.471  42.217  0.00  0.00    -0.174 N 
HETATM   11  N   UNK N   1      88.293  14.747  42.265  0.00  0.00    -0.234 N 
HETATM   12  C   UNK N   1      93.883  14.955  43.221  0.00  0.00     0.185 A 
HETATM   13  N   UNK N   1      93.001  14.342  42.363  0.00  0.00    -0.327 N 
HETATM   14  H   UNK N   1      90.406  13.853  41.434  0.00  0.00     0.186 HD
HETATM   15  H   UNK N   1      87.465  15.168  42.672  0.00  0.00     0.174 HD
HETATM   16  H   UNK N   1      88.174  14.109  41.496  0.00  0.00     0.174 HD
ENDROOT
BRANCH  13  17
HETATM   17  C   UNK N   1      93.361  13.423  41.304  0.00  0.00     0.132 C 
BRANCH  17  18
HETATM   18  C   UNK N   1      93.247  14.069  39.925  0.00  0.00     0.029 C 
BRANCH  18  19
HETATM   19  C   UNK N   1      92.217  13.380  39.009  0.00  0.00     0.034 C 
BRANCH  19  20
HETATM   20  C   UNK N   1      92.858  12.524  37.906  0.00  0.00     0.170 C 
BRANCH  20  21
HETATM   21  O   UNK N   1      94.270  12.695  37.910  0.00  0.00    -0.400 OA
HETATM   22  H   UNK N   1      94.530  12.921  36.997  0.00  0.00     0.209 HD
ENDBRANCH  20  21
ENDBRANCH  19  20
BRANCH  19  23
HETATM   23  C   UNK N   1      91.298  14.444  38.393  0.00  0.00     0.170 C 
BRANCH  23  24
HETATM   24  O   UNK N   1      90.805  15.294  39.422  0.00  0.00    -0.400 OA
HETATM   25  H   UNK N   1      90.033  14.846  39.812  0.00  0.00     0.209 HD
ENDBRANCH  23  24
ENDBRANCH  19  23
ENDBRANCH  18  19
ENDBRANCH  17  18
ENDBRANCH  13  17
TORSDOF 7
ENDMDL
