MODEL 1
REMARK VINA RESULT:      -6.6      0.000      0.000
REMARK  21 active torsions:
REMARK  status: ('A' for Active; 'I' for Inactive)
REMARK    1  A    between atoms: C_2  and  O_3 
REMARK    2  A    between atoms: C_2  and  C_4 
REMARK    3  A    between atoms: C_4  and  N_5 
REMARK    4  A    between atoms: N_5  and  C_6 
REMARK    5  A    between atoms: N_5  and  C_7 
REMARK    6  A    between atoms: C_6  and  C_8 
REMARK    7  A    between atoms: C_7  and  C_9 
REMARK    8  A    between atoms: C_8  and  O_11 
REMARK    9  A    between atoms: C_9  and  N_12 
REMARK   10  A    between atoms: N_12  and  C_13 
REMARK   11  A    between atoms: N_12  and  C_14 
REMARK   12  A    between atoms: C_13  and  C_15 
REMARK   13  A    between atoms: C_14  and  C_16 
REMARK   14  A    between atoms: C_15  and  O_18 
REMARK   15  A    between atoms: C_16  and  N_19 
REMARK   16  A    between atoms: N_19  and  C_20 
REMARK   17  A    between atoms: N_19  and  C_21 
REMARK   18  A    between atoms: C_20  and  C_22 
REMARK   19  A    between atoms: C_21  and  C_23 
REMARK   20  A    between atoms: C_22  and  O_25 
REMARK   21  A    between atoms: C_23  and  O_27 
ROOT
HETATM    1  N   UNK N   1      90.130  14.262  41.706  0.00  0.00     0.101 N 
ENDROOT
BRANCH   1   2
HETATM    2  C   UNK N   1      90.418  15.650  42.131  0.00  0.00     0.303 C 
BRANCH   2   3
HETATM    3  C   UNK N   1      89.738  15.989  43.483  0.00  0.00     0.304 C 
BRANCH   3   4
HETATM    4  N   UNK N   1      90.644  16.536  44.523  0.00  0.00     0.110 N 
BRANCH   4   5
HETATM    5  C   UNK N   1      91.576  17.501  43.890  0.00  0.00     0.382 C 
BRANCH   5   6
HETATM    6  C   UNK N   1      91.210  18.953  44.192  0.00  0.00     0.169 C 
HETATM    7  O   UNK N   1      90.990  19.864  43.408  0.00  0.00    -0.649 OA
BRANCH   6   8
HETATM    8  O   UNK N   1      91.104  19.179  45.521  0.00  0.00    -0.775 OA
HETATM    9  H   UNK N   1      91.786  18.590  45.907  0.00  0.00     0.167 HD
ENDBRANCH   6   8
ENDBRANCH   5   6
ENDBRANCH   4   5
BRANCH   4  10
HETATM   10  C   UNK N   1      91.389  15.459  45.225  0.00  0.00     0.382 C 
BRANCH  10  11
HETATM   11  C   UNK N   1      90.460  14.340  45.692  0.00  0.00     0.169 C 
HETATM   12  O   UNK N   1      90.197  13.282  45.143  0.00  0.00    -0.649 OA
BRANCH  11  13
HETATM   13  O   UNK N   1      89.928  14.607  46.908  0.00  0.00    -0.775 OA
HETATM   14  H   UNK N   1      88.973  14.436  46.772  0.00  0.00     0.167 HD
ENDBRANCH  11  13
ENDBRANCH  10  11
ENDBRANCH   4  10
ENDBRANCH   3   4
ENDBRANCH   2   3
ENDBRANCH   1   2
BRANCH   1  15
HETATM   15  C   UNK N   1      89.403  14.240  40.415  0.00  0.00     0.381 C 
BRANCH  15  16
HETATM   16  C   UNK N   1      87.977  13.714  40.568  0.00  0.00     0.169 C 
HETATM   17  O   UNK N   1      87.391  13.379  41.584  0.00  0.00    -0.649 OA
BRANCH  16  18
HETATM   18  O   UNK N   1      87.352  13.617  39.372  0.00  0.00    -0.775 OA
HETATM   19  H   UNK N   1      86.562  14.188  39.482  0.00  0.00     0.167 HD
ENDBRANCH  16  18
ENDBRANCH  15  16
ENDBRANCH   1  15
BRANCH   1  20
HETATM   20  C   UNK N   1      91.366  13.459  41.617  0.00  0.00     0.303 C 
BRANCH  20  21
HETATM   21  C   UNK N   1      92.652  14.325  41.546  0.00  0.00     0.304 C 
BRANCH  21  22
HETATM   22  N   UNK N   1      93.643  13.770  40.597  0.00  0.00     0.110 N 
BRANCH  22  23
HETATM   23  C   UNK N   1      93.050  12.725  39.730  0.00  0.00     0.382 C 
BRANCH  23  24
HETATM   24  C   UNK N   1      93.680  12.700  38.337  0.00  0.00     0.169 C 
HETATM   25  O   UNK N   1      94.315  11.808  37.799  0.00  0.00    -0.649 OA
BRANCH  24  26
HETATM   26  O   UNK N   1      93.496  13.873  37.689  0.00  0.00    -0.775 OA
HETATM   27  H   UNK N   1      92.519  13.964  37.663  0.00  0.00     0.167 HD
ENDBRANCH  24  26
ENDBRANCH  23  24
ENDBRANCH  22  23
BRANCH  22  28
HETATM   28  C   UNK N   1      94.826  13.240  41.317  0.00  0.00     0.382 C 
BRANCH  28  29
HETATM   29  C   UNK N   1      96.117  13.927  40.881  0.00  0.00     0.169 C 
HETATM   30  O   UNK N   1      96.519  14.146  39.748  0.00  0.00    -0.649 OA
BRANCH  29  31
HETATM   31  O   UNK N   1      96.856  14.324  41.941  0.00  0.00    -0.775 OA
HETATM   32  H   UNK N   1      96.703  13.617  42.602  0.00  0.00     0.167 HD
ENDBRANCH  29  31
ENDBRANCH  28  29
ENDBRANCH  22  28
ENDBRANCH  21  22
ENDBRANCH  20  21
ENDBRANCH   1  20
TORSDOF 21
ENDMDL
MODEL 2
REMARK VINA RESULT:      -6.6      1.790      4.912
REMARK  21 active torsions:
REMARK  status: ('A' for Active; 'I' for Inactive)
REMARK    1  A    between atoms: C_2  and  O_3 
REMARK    2  A    between atoms: C_2  and  C_4 
REMARK    3  A    between atoms: C_4  and  N_5 
REMARK    4  A    between atoms: N_5  and  C_6 
REMARK    5  A    between atoms: N_5  and  C_7 
REMARK    6  A    between atoms: C_6  and  C_8 
REMARK    7  A    between atoms: C_7  and  C_9 
REMARK    8  A    between atoms: C_8  and  O_11 
REMARK    9  A    between atoms: C_9  and  N_12 
REMARK   10  A    between atoms: N_12  and  C_13 
REMARK   11  A    between atoms: N_12  and  C_14 
REMARK   12  A    between atoms: C_13  and  C_15 
REMARK   13  A    between atoms: C_14  and  C_16 
REMARK   14  A    between atoms: C_15  and  O_18 
REMARK   15  A    between atoms: C_16  and  N_19 
REMARK   16  A    between atoms: N_19  and  C_20 
REMARK   17  A    between atoms: N_19  and  C_21 
REMARK   18  A    between atoms: C_20  and  C_22 
REMARK   19  A    between atoms: C_21  and  C_23 
REMARK   20  A    between atoms: C_22  and  O_25 
REMARK   21  A    between atoms: C_23  and  O_27 
ROOT
HETATM    1  N   UNK N   1      94.036  14.015  42.454  0.00  0.00     0.101 N 
ENDROOT
BRANCH   1   2
HETATM    2  C   UNK N   1      93.742  14.979  43.538  0.00  0.00     0.303 C 
BRANCH   2   3
HETATM    3  C   UNK N   1      92.671  16.016  43.109  0.00  0.00     0.304 C 
BRANCH   3   4
HETATM    4  N   UNK N   1      91.898  16.618  44.222  0.00  0.00     0.110 N 
BRANCH   4   5
HETATM    5  C   UNK N   1      91.321  15.531  45.052  0.00  0.00     0.382 C 
BRANCH   5   6
HETATM    6  C   UNK N   1      89.967  15.053  44.531  0.00  0.00     0.169 C 
HETATM    7  O   UNK N   1      88.864  15.182  45.040  0.00  0.00    -0.649 OA
BRANCH   6   8
HETATM    8  O   UNK N   1      90.077  14.442  43.329  0.00  0.00    -0.775 OA
HETATM    9  H   UNK N   1      90.935  13.973  43.391  0.00  0.00     0.167 HD
ENDBRANCH   6   8
ENDBRANCH   5   6
ENDBRANCH   4   5
BRANCH   4  10
HETATM   10  C   UNK N   1      90.834  17.528  43.724  0.00  0.00     0.382 C 
BRANCH  10  11
HETATM   11  C   UNK N   1      91.118  18.984  44.090  0.00  0.00     0.169 C 
HETATM   12  O   UNK N   1      91.252  19.948  43.354  0.00  0.00    -0.649 OA
BRANCH  11  13
HETATM   13  O   UNK N   1      91.169  19.161  45.431  0.00  0.00    -0.775 OA
HETATM   14  H   UNK N   1      91.137  18.245  45.775  0.00  0.00     0.167 HD
ENDBRANCH  11  13
ENDBRANCH  10  11
ENDBRANCH   4  10
ENDBRANCH   3   4
ENDBRANCH   2   3
ENDBRANCH   1   2
BRANCH   1  15
HETATM   15  C   UNK N   1      95.497  13.861  42.259  0.00  0.00     0.381 C 
BRANCH  15  16
HETATM   16  C   UNK N   1      95.974  14.505  40.959  0.00  0.00     0.169 C 
HETATM   17  O   UNK N   1      95.388  14.599  39.893  0.00  0.00    -0.649 OA
BRANCH  16  18
HETATM   18  O   UNK N   1      97.229  14.996  41.078  0.00  0.00    -0.775 OA
HETATM   19  H   UNK N   1      97.255  15.717  40.413  0.00  0.00     0.167 HD
ENDBRANCH  16  18
ENDBRANCH  15  16
ENDBRANCH   1  15
BRANCH   1  20
HETATM   20  C   UNK N   1      93.408  12.704  42.714  0.00  0.00     0.303 C 
BRANCH  20  21
HETATM   21  C   UNK N   1      92.184  12.422  41.803  0.00  0.00     0.304 C 
BRANCH  21  22
HETATM   22  N   UNK N   1      92.392  12.916  40.424  0.00  0.00     0.110 N 
BRANCH  22  23
HETATM   23  C   UNK N   1      91.110  13.250  39.761  0.00  0.00     0.382 C 
BRANCH  23  24
HETATM   24  C   UNK N   1      90.882  14.759  39.665  0.00  0.00     0.169 C 
HETATM   25  O   UNK N   1      90.385  15.513  40.486  0.00  0.00    -0.649 OA
BRANCH  24  26
HETATM   26  O   UNK N   1      91.277  15.245  38.466  0.00  0.00    -0.775 OA
HETATM   27  H   UNK N   1      90.768  16.080  38.385  0.00  0.00     0.167 HD
ENDBRANCH  24  26
ENDBRANCH  23  24
ENDBRANCH  22  23
BRANCH  22  28
HETATM   28  C   UNK N   1      93.155  11.933  39.618  0.00  0.00     0.382 C 
BRANCH  28  29
HETATM   29  C   UNK N   1      93.224  12.330  38.146  0.00  0.00     0.169 C 
HETATM   30  O   UNK N   1      92.836  11.708  37.169  0.00  0.00    -0.649 OA
BRANCH  29  31
HETATM   31  O   UNK N   1      93.796  13.544  37.981  0.00  0.00    -0.775 OA
HETATM   32  H   UNK N   1      94.602  13.346  37.459  0.00  0.00     0.167 HD
ENDBRANCH  29  31
ENDBRANCH  28  29
ENDBRANCH  22  28
ENDBRANCH  21  22
ENDBRANCH  20  21
ENDBRANCH   1  20
TORSDOF 21
ENDMDL
MODEL 3
REMARK VINA RESULT:      -6.6      2.238      6.563
REMARK  21 active torsions:
REMARK  status: ('A' for Active; 'I' for Inactive)
REMARK    1  A    between atoms: C_2  and  O_3 
REMARK    2  A    between atoms: C_2  and  C_4 
REMARK    3  A    between atoms: C_4  and  N_5 
REMARK    4  A    between atoms: N_5  and  C_6 
REMARK    5  A    between atoms: N_5  and  C_7 
REMARK    6  A    between atoms: C_6  and  C_8 
REMARK    7  A    between atoms: C_7  and  C_9 
REMARK    8  A    between atoms: C_8  and  O_11 
REMARK    9  A    between atoms: C_9  and  N_12 
REMARK   10  A    between atoms: N_12  and  C_13 
REMARK   11  A    between atoms: N_12  and  C_14 
REMARK   12  A    between atoms: C_13  and  C_15 
REMARK   13  A    between atoms: C_14  and  C_16 
REMARK   14  A    between atoms: C_15  and  O_18 
REMARK   15  A    between atoms: C_16  and  N_19 
REMARK   16  A    between atoms: N_19  and  C_20 
REMARK   17  A    between atoms: N_19  and  C_21 
REMARK   18  A    between atoms: C_20  and  C_22 
REMARK   19  A    between atoms: C_21  and  C_23 
REMARK   20  A    between atoms: C_22  and  O_25 
REMARK   21  A    between atoms: C_23  and  O_27 
ROOT
HETATM    1  N   UNK N   1      89.746  14.062  40.758  0.00  0.00     0.101 N 
ENDROOT
BRANCH   1   2
HETATM    2  C   UNK N   1      90.705  12.999  41.133  0.00  0.00     0.303 C 
BRANCH   2   3
HETATM    3  C   UNK N   1      91.338  12.332  39.884  0.00  0.00     0.304 C 
BRANCH   3   4
HETATM    4  N   UNK N   1      90.953  12.936  38.585  0.00  0.00     0.110 N 
BRANCH   4   5
HETATM    5  C   UNK N   1      90.636  11.851  37.624  0.00  0.00     0.382 C 
BRANCH   5   6
HETATM    6  C   UNK N   1      89.133  11.629  37.466  0.00  0.00     0.169 C 
HETATM    7  O   UNK N   1      88.476  10.635  37.734  0.00  0.00    -0.649 OA
BRANCH   6   8
HETATM    8  O   UNK N   1      88.509  12.731  36.991  0.00  0.00    -0.775 OA
HETATM    9  H   UNK N   1      88.404  13.293  37.787  0.00  0.00     0.167 HD
ENDBRANCH   6   8
ENDBRANCH   5   6
ENDBRANCH   4   5
BRANCH   4  10
HETATM   10  C   UNK N   1      92.021  13.823  38.054  0.00  0.00     0.382 C 
BRANCH  10  11
HETATM   11  C   UNK N   1      93.401  13.178  38.166  0.00  0.00     0.169 C 
HETATM   12  O   UNK N   1      93.823  12.169  37.623  0.00  0.00    -0.649 OA
BRANCH  11  13
HETATM   13  O   UNK N   1      94.228  13.902  38.956  0.00  0.00    -0.775 OA
HETATM   14  H   UNK N   1      94.477  13.264  39.656  0.00  0.00     0.167 HD
ENDBRANCH  11  13
ENDBRANCH  10  11
ENDBRANCH   4  10
ENDBRANCH   3   4
ENDBRANCH   2   3
ENDBRANCH   1   2
BRANCH   1  15
HETATM   15  C   UNK N   1      88.422  13.829  41.381  0.00  0.00     0.381 C 
BRANCH  15  16
HETATM   16  C   UNK N   1      87.455  13.128  40.430  0.00  0.00     0.169 C 
HETATM   17  O   UNK N   1      86.854  12.077  40.587  0.00  0.00    -0.649 OA
BRANCH  16  18
HETATM   18  O   UNK N   1      87.311  13.813  39.272  0.00  0.00    -0.775 OA
HETATM   19  H   UNK N   1      88.228  14.080  39.050  0.00  0.00     0.167 HD
ENDBRANCH  16  18
ENDBRANCH  15  16
ENDBRANCH   1  15
BRANCH   1  20
HETATM   20  C   UNK N   1      90.258  15.400  41.118  0.00  0.00     0.303 C 
BRANCH  20  21
HETATM   21  C   UNK N   1      89.978  15.783  42.596  0.00  0.00     0.304 C 
BRANCH  21  22
HETATM   22  N   UNK N   1      91.197  16.263  43.286  0.00  0.00     0.110 N 
BRANCH  22  23
HETATM   23  C   UNK N   1      91.947  15.150  43.915  0.00  0.00     0.382 C 
BRANCH  23  24
HETATM   24  C   UNK N   1      93.369  15.027  43.368  0.00  0.00     0.169 C 
HETATM   25  O   UNK N   1      93.791  14.295  42.487  0.00  0.00    -0.649 OA
BRANCH  24  26
HETATM   26  O   UNK N   1      94.225  15.847  44.022  0.00  0.00    -0.775 OA
HETATM   27  H   UNK N   1      94.996  15.267  44.200  0.00  0.00     0.167 HD
ENDBRANCH  24  26
ENDBRANCH  23  24
ENDBRANCH  22  23
BRANCH  22  28
HETATM   28  C   UNK N   1      90.862  17.300  44.292  0.00  0.00     0.382 C 
BRANCH  28  29
HETATM   29  C   UNK N   1      91.417  18.668  43.909  0.00  0.00     0.169 C 
HETATM   30  O   UNK N   1      90.808  19.705  43.691  0.00  0.00    -0.649 OA
BRANCH  29  31
HETATM   31  O   UNK N   1      92.767  18.656  43.825  0.00  0.00    -0.775 OA
HETATM   32  H   UNK N   1      92.987  19.578  43.575  0.00  0.00     0.167 HD
ENDBRANCH  29  31
ENDBRANCH  28  29
ENDBRANCH  22  28
ENDBRANCH  21  22
ENDBRANCH  20  21
ENDBRANCH   1  20
TORSDOF 21
ENDMDL
MODEL 4
REMARK VINA RESULT:      -6.5      1.088      6.860
REMARK  21 active torsions:
REMARK  status: ('A' for Active; 'I' for Inactive)
REMARK    1  A    between atoms: C_2  and  O_3 
REMARK    2  A    between atoms: C_2  and  C_4 
REMARK    3  A    between atoms: C_4  and  N_5 
REMARK    4  A    between atoms: N_5  and  C_6 
REMARK    5  A    between atoms: N_5  and  C_7 
REMARK    6  A    between atoms: C_6  and  C_8 
REMARK    7  A    between atoms: C_7  and  C_9 
REMARK    8  A    between atoms: C_8  and  O_11 
REMARK    9  A    between atoms: C_9  and  N_12 
REMARK   10  A    between atoms: N_12  and  C_13 
REMARK   11  A    between atoms: N_12  and  C_14 
REMARK   12  A    between atoms: C_13  and  C_15 
REMARK   13  A    between atoms: C_14  and  C_16 
REMARK   14  A    between atoms: C_15  and  O_18 
REMARK   15  A    between atoms: C_16  and  N_19 
REMARK   16  A    between atoms: N_19  and  C_20 
REMARK   17  A    between atoms: N_19  and  C_21 
REMARK   18  A    between atoms: C_20  and  C_22 
REMARK   19  A    between atoms: C_21  and  C_23 
REMARK   20  A    between atoms: C_22  and  O_25 
REMARK   21  A    between atoms: C_23  and  O_27 
ROOT
HETATM    1  N   UNK N   1      90.072  15.114  41.133  0.00  0.00     0.101 N 
ENDROOT
BRANCH   1   2
HETATM    2  C   UNK N   1      91.098  14.626  40.184  0.00  0.00     0.303 C 
BRANCH   2   3
HETATM    3  C   UNK N   1      92.282  13.947  40.919  0.00  0.00     0.304 C 
BRANCH   3   4
HETATM    4  N   UNK N   1      93.426  13.570  40.053  0.00  0.00     0.110 N 
BRANCH   4   5
HETATM    5  C   UNK N   1      94.652  14.239  40.557  0.00  0.00     0.382 C 
BRANCH   5   6
HETATM    6  C   UNK N   1      95.930  13.601  40.018  0.00  0.00     0.169 C 
HETATM    7  O   UNK N   1      96.176  12.418  39.838  0.00  0.00    -0.649 OA
BRANCH   6   8
HETATM    8  O   UNK N   1      96.857  14.530  39.690  0.00  0.00    -0.775 OA
HETATM    9  H   UNK N   1      97.707  14.059  39.821  0.00  0.00     0.167 HD
ENDBRANCH   6   8
ENDBRANCH   5   6
ENDBRANCH   4   5
BRANCH   4  10
HETATM   10  C   UNK N   1      93.177  13.918  38.630  0.00  0.00     0.382 C 
BRANCH  10  11
HETATM   11  C   UNK N   1      93.098  12.673  37.749  0.00  0.00     0.169 C 
HETATM   12  O   UNK N   1      92.139  12.221  37.144  0.00  0.00    -0.649 OA
BRANCH  11  13
HETATM   13  O   UNK N   1      94.302  12.066  37.631  0.00  0.00    -0.775 OA
HETATM   14  H   UNK N   1      94.932  12.815  37.687  0.00  0.00     0.167 HD
ENDBRANCH  11  13
ENDBRANCH  10  11
ENDBRANCH   4  10
ENDBRANCH   3   4
ENDBRANCH   2   3
ENDBRANCH   1   2
BRANCH   1  15
HETATM   15  C   UNK N   1      89.472  13.992  41.892  0.00  0.00     0.381 C 
BRANCH  15  16
HETATM   16  C   UNK N   1      88.529  13.156  41.031  0.00  0.00     0.169 C 
HETATM   17  O   UNK N   1      88.566  11.958  40.798  0.00  0.00    -0.649 OA
BRANCH  16  18
HETATM   18  O   UNK N   1      87.561  13.916  40.469  0.00  0.00    -0.775 OA
HETATM   19  H   UNK N   1      87.015  13.264  39.980  0.00  0.00     0.167 HD
ENDBRANCH  16  18
ENDBRANCH  15  16
ENDBRANCH   1  15
BRANCH   1  20
HETATM   20  C   UNK N   1      90.631  16.123  42.057  0.00  0.00     0.303 C 
BRANCH  20  21
HETATM   21  C   UNK N   1      89.954  16.114  43.452  0.00  0.00     0.304 C 
BRANCH  21  22
HETATM   22  N   UNK N   1      90.892  16.503  44.529  0.00  0.00     0.110 N 
BRANCH  22  23
HETATM   23  C   UNK N   1      91.839  17.551  44.080  0.00  0.00     0.382 C 
BRANCH  23  24
HETATM   24  C   UNK N   1      91.265  18.959  44.241  0.00  0.00     0.169 C 
HETATM   25  O   UNK N   1      90.999  19.782  43.379  0.00  0.00    -0.649 OA
BRANCH  24  26
HETATM   26  O   UNK N   1      91.087  19.276  45.544  0.00  0.00    -0.775 OA
HETATM   27  H   UNK N   1      90.519  20.076  45.503  0.00  0.00     0.167 HD
ENDBRANCH  24  26
ENDBRANCH  23  24
ENDBRANCH  22  23
BRANCH  22  28
HETATM   28  C   UNK N   1      91.628  15.322  45.042  0.00  0.00     0.382 C 
BRANCH  28  29
HETATM   29  C   UNK N   1      91.013  14.782  46.330  0.00  0.00     0.169 C 
HETATM   30  O   UNK N   1      91.571  14.490  47.377  0.00  0.00    -0.649 OA
BRANCH  29  31
HETATM   31  O   UNK N   1      89.673  14.639  46.225  0.00  0.00    -0.775 OA
HETATM   32  H   UNK N   1      89.367  15.538  45.981  0.00  0.00     0.167 HD
ENDBRANCH  29  31
ENDBRANCH  28  29
ENDBRANCH  22  28
ENDBRANCH  21  22
ENDBRANCH  20  21
ENDBRANCH   1  20
TORSDOF 21
ENDMDL
MODEL 5
REMARK VINA RESULT:      -6.4      1.749      4.644
REMARK  21 active torsions:
REMARK  status: ('A' for Active; 'I' for Inactive)
REMARK    1  A    between atoms: C_2  and  O_3 
REMARK    2  A    between atoms: C_2  and  C_4 
REMARK    3  A    between atoms: C_4  and  N_5 
REMARK    4  A    between atoms: N_5  and  C_6 
REMARK    5  A    between atoms: N_5  and  C_7 
REMARK    6  A    between atoms: C_6  and  C_8 
REMARK    7  A    between atoms: C_7  and  C_9 
REMARK    8  A    between atoms: C_8  and  O_11 
REMARK    9  A    between atoms: C_9  and  N_12 
REMARK   10  A    between atoms: N_12  and  C_13 
REMARK   11  A    between atoms: N_12  and  C_14 
REMARK   12  A    between atoms: C_13  and  C_15 
REMARK   13  A    between atoms: C_14  and  C_16 
REMARK   14  A    between atoms: C_15  and  O_18 
REMARK   15  A    between atoms: C_16  and  N_19 
REMARK   16  A    between atoms: N_19  and  C_20 
REMARK   17  A    between atoms: N_19  and  C_21 
REMARK   18  A    between atoms: C_20  and  C_22 
REMARK   19  A    between atoms: C_21  and  C_23 
REMARK   20  A    between atoms: C_22  and  O_25 
REMARK   21  A    between atoms: C_23  and  O_27 
ROOT
HETATM    1  N   UNK N   1      93.962  13.795  41.361  0.00  0.00     0.101 N 
ENDROOT
BRANCH   1   2
HETATM    2  C   UNK N   1      93.563  14.882  42.282  0.00  0.00     0.303 C 
BRANCH   2   3
HETATM    3  C   UNK N   1      92.353  14.474  43.162  0.00  0.00     0.304 C 
BRANCH   3   4
HETATM    4  N   UNK N   1      91.527  15.602  43.657  0.00  0.00     0.110 N 
BRANCH   4   5
HETATM    5  C   UNK N   1      92.421  16.633  44.242  0.00  0.00     0.382 C 
BRANCH   5   6
HETATM    6  C   UNK N   1      91.962  18.054  43.923  0.00  0.00     0.169 C 
HETATM    7  O   UNK N   1      90.832  18.517  43.951  0.00  0.00    -0.649 OA
BRANCH   6   8
HETATM    8  O   UNK N   1      93.002  18.859  43.604  0.00  0.00    -0.775 OA
HETATM    9  H   UNK N   1      93.606  18.763  44.369  0.00  0.00     0.167 HD
ENDBRANCH   6   8
ENDBRANCH   5   6
ENDBRANCH   4   5
BRANCH   4  10
HETATM   10  C   UNK N   1      90.516  15.151  44.648  0.00  0.00     0.382 C 
BRANCH  10  11
HETATM   11  C   UNK N   1      89.092  15.435  44.173  0.00  0.00     0.169 C 
HETATM   12  O   UNK N   1      88.034  15.055  44.650  0.00  0.00    -0.649 OA
BRANCH  11  13
HETATM   13  O   UNK N   1      89.077  16.265  43.104  0.00  0.00    -0.775 OA
HETATM   14  H   UNK N   1      89.452  17.095  43.465  0.00  0.00     0.167 HD
ENDBRANCH  11  13
ENDBRANCH  10  11
ENDBRANCH   4  10
ENDBRANCH   3   4
ENDBRANCH   2   3
ENDBRANCH   1   2
BRANCH   1  15
HETATM   15  C   UNK N   1      95.331  13.315  41.663  0.00  0.00     0.381 C 
BRANCH  15  16
HETATM   16  C   UNK N   1      96.288  13.537  40.494  0.00  0.00     0.169 C 
HETATM   17  O   UNK N   1      97.506  13.463  40.479  0.00  0.00    -0.649 OA
BRANCH  16  18
HETATM   18  O   UNK N   1      95.625  13.876  39.365  0.00  0.00    -0.775 OA
HETATM   19  H   UNK N   1      94.848  13.278  39.369  0.00  0.00     0.167 HD
ENDBRANCH  16  18
ENDBRANCH  15  16
ENDBRANCH   1  15
BRANCH   1  20
HETATM   20  C   UNK N   1      93.001  12.674  41.405  0.00  0.00     0.303 C 
BRANCH  20  21
HETATM   21  C   UNK N   1      92.316  12.404  40.039  0.00  0.00     0.304 C 
BRANCH  21  22
HETATM   22  N   UNK N   1      91.939  13.657  39.349  0.00  0.00     0.110 N 
BRANCH  22  23
HETATM   23  C   UNK N   1      90.471  13.774  39.183  0.00  0.00     0.382 C 
BRANCH  23  24
HETATM   24  C   UNK N   1      89.806  14.463  40.375  0.00  0.00     0.169 C 
HETATM   25  O   UNK N   1      88.913  14.051  41.098  0.00  0.00    -0.649 OA
BRANCH  24  26
HETATM   26  O   UNK N   1      90.303  15.706  40.571  0.00  0.00    -0.775 OA
HETATM   27  H   UNK N   1      89.983  15.935  41.469  0.00  0.00     0.167 HD
ENDBRANCH  24  26
ENDBRANCH  23  24
ENDBRANCH  22  23
BRANCH  22  28
HETATM   28  C   UNK N   1      92.621  13.764  38.036  0.00  0.00     0.382 C 
BRANCH  28  29
HETATM   29  C   UNK N   1      93.058  12.401  37.506  0.00  0.00     0.169 C 
HETATM   30  O   UNK N   1      94.131  11.835  37.650  0.00  0.00    -0.649 OA
BRANCH  29  31
HETATM   31  O   UNK N   1      92.074  11.799  36.800  0.00  0.00    -0.775 OA
HETATM   32  H   UNK N   1      91.439  12.527  36.629  0.00  0.00     0.167 HD
ENDBRANCH  29  31
ENDBRANCH  28  29
ENDBRANCH  22  28
ENDBRANCH  21  22
ENDBRANCH  20  21
ENDBRANCH   1  20
TORSDOF 21
ENDMDL
MODEL 6
REMARK VINA RESULT:      -6.3      1.239      6.648
REMARK  21 active torsions:
REMARK  status: ('A' for Active; 'I' for Inactive)
REMARK    1  A    between atoms: C_2  and  O_3 
REMARK    2  A    between atoms: C_2  and  C_4 
REMARK    3  A    between atoms: C_4  and  N_5 
REMARK    4  A    between atoms: N_5  and  C_6 
REMARK    5  A    between atoms: N_5  and  C_7 
REMARK    6  A    between atoms: C_6  and  C_8 
REMARK    7  A    between atoms: C_7  and  C_9 
REMARK    8  A    between atoms: C_8  and  O_11 
REMARK    9  A    between atoms: C_9  and  N_12 
REMARK   10  A    between atoms: N_12  and  C_13 
REMARK   11  A    between atoms: N_12  and  C_14 
REMARK   12  A    between atoms: C_13  and  C_15 
REMARK   13  A    between atoms: C_14  and  C_16 
REMARK   14  A    between atoms: C_15  and  O_18 
REMARK   15  A    between atoms: C_16  and  N_19 
REMARK   16  A    between atoms: N_19  and  C_20 
REMARK   17  A    between atoms: N_19  and  C_21 
REMARK   18  A    between atoms: C_20  and  C_22 
REMARK   19  A    between atoms: C_21  and  C_23 
REMARK   20  A    between atoms: C_22  and  O_25 
REMARK   21  A    between atoms: C_23  and  O_27 
ROOT
HETATM    1  N   UNK N   1      90.072  15.040  41.090  0.00  0.00     0.101 N 
ENDROOT
BRANCH   1   2
HETATM    2  C   UNK N   1      91.184  14.635  40.202  0.00  0.00     0.303 C 
BRANCH   2   3
HETATM    3  C   UNK N   1      92.410  14.134  41.009  0.00  0.00     0.304 C 
BRANCH   3   4
HETATM    4  N   UNK N   1      93.563  13.690  40.189  0.00  0.00     0.110 N 
BRANCH   4   5
HETATM    5  C   UNK N   1      93.215  12.412  39.519  0.00  0.00     0.382 C 
BRANCH   5   6
HETATM    6  C   UNK N   1      93.538  12.427  38.026  0.00  0.00     0.169 C 
HETATM    7  O   UNK N   1      93.137  13.195  37.166  0.00  0.00    -0.649 OA
BRANCH   6   8
HETATM    8  O   UNK N   1      94.412  11.450  37.691  0.00  0.00    -0.775 OA
HETATM    9  H   UNK N   1      93.944  10.629  37.948  0.00  0.00     0.167 HD
ENDBRANCH   6   8
ENDBRANCH   5   6
ENDBRANCH   4   5
BRANCH   4  10
HETATM   10  C   UNK N   1      94.796  13.544  41.006  0.00  0.00     0.382 C 
BRANCH  10  11
HETATM   11  C   UNK N   1      96.032  13.335  40.134  0.00  0.00     0.169 C 
HETATM   12  O   UNK N   1      96.582  12.291  39.821  0.00  0.00    -0.649 OA
BRANCH  11  13
HETATM   13  O   UNK N   1      96.499  14.506  39.640  0.00  0.00    -0.775 OA
HETATM   14  H   UNK N   1      95.686  15.042  39.540  0.00  0.00     0.167 HD
ENDBRANCH  11  13
ENDBRANCH  10  11
ENDBRANCH   4  10
ENDBRANCH   3   4
ENDBRANCH   2   3
ENDBRANCH   1   2
BRANCH   1  15
HETATM   15  C   UNK N   1      89.492  13.867  41.786  0.00  0.00     0.381 C 
BRANCH  15  16
HETATM   16  C   UNK N   1      88.520  13.094  40.897  0.00  0.00     0.169 C 
HETATM   17  O   UNK N   1      88.514  11.905  40.623  0.00  0.00    -0.649 OA
BRANCH  16  18
HETATM   18  O   UNK N   1      87.581  13.908  40.361  0.00  0.00    -0.775 OA
HETATM   19  H   UNK N   1      87.934  14.807  40.531  0.00  0.00     0.167 HD
ENDBRANCH  16  18
ENDBRANCH  15  16
ENDBRANCH   1  15
BRANCH   1  20
HETATM   20  C   UNK N   1      90.508  16.057  42.068  0.00  0.00     0.303 C 
BRANCH  20  21
HETATM   21  C   UNK N   1      89.857  15.879  43.466  0.00  0.00     0.304 C 
BRANCH  21  22
HETATM   22  N   UNK N   1      90.587  16.621  44.518  0.00  0.00     0.110 N 
BRANCH  22  23
HETATM   23  C   UNK N   1      91.571  17.568  43.941  0.00  0.00     0.382 C 
BRANCH  23  24
HETATM   24  C   UNK N   1      91.175  19.026  44.170  0.00  0.00     0.169 C 
HETATM   25  O   UNK N   1      90.955  19.900  43.347  0.00  0.00    -0.649 OA
BRANCH  24  26
HETATM   26  O   UNK N   1      91.115  19.322  45.489  0.00  0.00    -0.775 OA
HETATM   27  H   UNK N   1      90.577  20.143  45.509  0.00  0.00     0.167 HD
ENDBRANCH  24  26
ENDBRANCH  23  24
ENDBRANCH  22  23
BRANCH  22  28
HETATM   28  C   UNK N   1      91.253  15.688  45.458  0.00  0.00     0.382 C 
BRANCH  28  29
HETATM   29  C   UNK N   1      92.430  14.965  44.810  0.00  0.00     0.169 C 
HETATM   30  O   UNK N   1      93.535  15.405  44.531  0.00  0.00    -0.649 OA
BRANCH  29  31
HETATM   31  O   UNK N   1      92.140  13.671  44.544  0.00  0.00    -0.775 OA
HETATM   32  H   UNK N   1      91.555  13.413  45.287  0.00  0.00     0.167 HD
ENDBRANCH  29  31
ENDBRANCH  28  29
ENDBRANCH  22  28
ENDBRANCH  21  22
ENDBRANCH  20  21
ENDBRANCH   1  20
TORSDOF 21
ENDMDL
MODEL 7
REMARK VINA RESULT:      -6.3      1.742      7.124
REMARK  21 active torsions:
REMARK  status: ('A' for Active; 'I' for Inactive)
REMARK    1  A    between atoms: C_2  and  O_3 
REMARK    2  A    between atoms: C_2  and  C_4 
REMARK    3  A    between atoms: C_4  and  N_5 
REMARK    4  A    between atoms: N_5  and  C_6 
REMARK    5  A    between atoms: N_5  and  C_7 
REMARK    6  A    between atoms: C_6  and  C_8 
REMARK    7  A    between atoms: C_7  and  C_9 
REMARK    8  A    between atoms: C_8  and  O_11 
REMARK    9  A    between atoms: C_9  and  N_12 
REMARK   10  A    between atoms: N_12  and  C_13 
REMARK   11  A    between atoms: N_12  and  C_14 
REMARK   12  A    between atoms: C_13  and  C_15 
REMARK   13  A    between atoms: C_14  and  C_16 
REMARK   14  A    between atoms: C_15  and  O_18 
REMARK   15  A    between atoms: C_16  and  N_19 
REMARK   16  A    between atoms: N_19  and  C_20 
REMARK   17  A    between atoms: N_19  and  C_21 
REMARK   18  A    between atoms: C_20  and  C_22 
REMARK   19  A    between atoms: C_21  and  C_23 
REMARK   20  A    between atoms: C_22  and  O_25 
REMARK   21  A    between atoms: C_23  and  O_27 
ROOT
HETATM    1  N   UNK N   1      93.701  13.916  43.208  0.00  0.00     0.101 N 
ENDROOT
BRANCH   1   2
HETATM    2  C   UNK N   1      92.842  12.847  42.651  0.00  0.00     0.303 C 
BRANCH   2   3
HETATM    3  C   UNK N   1      91.928  13.379  41.516  0.00  0.00     0.304 C 
BRANCH   3   4
HETATM    4  N   UNK N   1      91.705  12.434  40.394  0.00  0.00     0.110 N 
BRANCH   4   5
HETATM    5  C   UNK N   1      93.018  12.060  39.811  0.00  0.00     0.382 C 
BRANCH   5   6
HETATM    6  C   UNK N   1      93.491  13.051  38.750  0.00  0.00     0.169 C 
HETATM    7  O   UNK N   1      93.466  14.272  38.779  0.00  0.00    -0.649 OA
BRANCH   6   8
HETATM    8  O   UNK N   1      94.023  12.422  37.676  0.00  0.00    -0.775 OA
HETATM    9  H   UNK N   1      94.024  11.479  37.944  0.00  0.00     0.167 HD
ENDBRANCH   6   8
ENDBRANCH   5   6
ENDBRANCH   4   5
BRANCH   4  10
HETATM   10  C   UNK N   1      90.809  13.011  39.359  0.00  0.00     0.382 C 
BRANCH  10  11
HETATM   11  C   UNK N   1      89.954  14.146  39.919  0.00  0.00     0.169 C 
HETATM   12  O   UNK N   1      88.846  14.093  40.428  0.00  0.00    -0.649 OA
BRANCH  11  13
HETATM   13  O   UNK N   1      90.595  15.337  39.850  0.00  0.00    -0.775 OA
HETATM   14  H   UNK N   1      91.333  15.152  39.233  0.00  0.00     0.167 HD
ENDBRANCH  11  13
ENDBRANCH  10  11
ENDBRANCH   4  10
ENDBRANCH   3   4
ENDBRANCH   2   3
ENDBRANCH   1   2
BRANCH   1  15
HETATM   15  C   UNK N   1      94.181  14.825  42.140  0.00  0.00     0.381 C 
BRANCH  15  16
HETATM   16  C   UNK N   1      95.549  14.409  41.605  0.00  0.00     0.169 C 
HETATM   17  O   UNK N   1      96.396  13.706  42.133  0.00  0.00    -0.649 OA
BRANCH  16  18
HETATM   18  O   UNK N   1      95.792  14.945  40.387  0.00  0.00    -0.775 OA
HETATM   19  H   UNK N   1      96.540  14.409  40.047  0.00  0.00     0.167 HD
ENDBRANCH  16  18
ENDBRANCH  15  16
ENDBRANCH   1  15
BRANCH   1  20
HETATM   20  C   UNK N   1      92.996  14.680  44.258  0.00  0.00     0.303 C 
BRANCH  20  21
HETATM   21  C   UNK N   1      92.824  16.182  43.909  0.00  0.00     0.304 C 
BRANCH  21  22
HETATM   22  N   UNK N   1      91.407  16.605  43.961  0.00  0.00     0.110 N 
BRANCH  22  23
HETATM   23  C   UNK N   1      91.230  17.837  44.766  0.00  0.00     0.382 C 
BRANCH  23  24
HETATM   24  C   UNK N   1      91.346  19.105  43.920  0.00  0.00     0.169 C 
HETATM   25  O   UNK N   1      92.350  19.713  43.584  0.00  0.00    -0.649 OA
BRANCH  24  26
HETATM   26  O   UNK N   1      90.129  19.577  43.563  0.00  0.00    -0.775 OA
HETATM   27  H   UNK N   1      89.706  19.777  44.426  0.00  0.00     0.167 HD
ENDBRANCH  24  26
ENDBRANCH  23  24
ENDBRANCH  22  23
BRANCH  22  28
HETATM   28  C   UNK N   1      90.547  15.515  44.481  0.00  0.00     0.382 C 
BRANCH  28  29
HETATM   29  C   UNK N   1      89.130  15.585  43.917  0.00  0.00     0.169 C 
HETATM   30  O   UNK N   1      88.078  15.282  44.459  0.00  0.00    -0.649 OA
BRANCH  29  31
HETATM   31  O   UNK N   1      89.117  16.061  42.652  0.00  0.00    -0.775 OA
HETATM   32  H   UNK N   1      89.462  16.974  42.749  0.00  0.00     0.167 HD
ENDBRANCH  29  31
ENDBRANCH  28  29
ENDBRANCH  22  28
ENDBRANCH  21  22
ENDBRANCH  20  21
ENDBRANCH   1  20
TORSDOF 21
ENDMDL
MODEL 8
REMARK VINA RESULT:      -6.2      1.655      3.079
REMARK  21 active torsions:
REMARK  status: ('A' for Active; 'I' for Inactive)
REMARK    1  A    between atoms: C_2  and  O_3 
REMARK    2  A    between atoms: C_2  and  C_4 
REMARK    3  A    between atoms: C_4  and  N_5 
REMARK    4  A    between atoms: N_5  and  C_6 
REMARK    5  A    between atoms: N_5  and  C_7 
REMARK    6  A    between atoms: C_6  and  C_8 
REMARK    7  A    between atoms: C_7  and  C_9 
REMARK    8  A    between atoms: C_8  and  O_11 
REMARK    9  A    between atoms: C_9  and  N_12 
REMARK   10  A    between atoms: N_12  and  C_13 
REMARK   11  A    between atoms: N_12  and  C_14 
REMARK   12  A    between atoms: C_13  and  C_15 
REMARK   13  A    between atoms: C_14  and  C_16 
REMARK   14  A    between atoms: C_15  and  O_18 
REMARK   15  A    between atoms: C_16  and  N_19 
REMARK   16  A    between atoms: N_19  and  C_20 
REMARK   17  A    between atoms: N_19  and  C_21 
REMARK   18  A    between atoms: C_20  and  C_22 
REMARK   19  A    between atoms: C_21  and  C_23 
REMARK   20  A    between atoms: C_22  and  O_25 
REMARK   21  A    between atoms: C_23  and  O_27 
ROOT
HETATM    1  N   UNK N   1      89.675  14.032  42.421  0.00  0.00     0.101 N 
ENDROOT
BRANCH   1   2
HETATM    2  C   UNK N   1      89.889  15.495  42.482  0.00  0.00     0.303 C 
BRANCH   2   3
HETATM    3  C   UNK N   1      89.985  16.000  43.945  0.00  0.00     0.304 C 
BRANCH   3   4
HETATM    4  N   UNK N   1      91.226  16.742  44.274  0.00  0.00     0.110 N 
BRANCH   4   5
HETATM    5  C   UNK N   1      92.055  15.915  45.186  0.00  0.00     0.382 C 
BRANCH   5   6
HETATM    6  C   UNK N   1      93.097  15.085  44.439  0.00  0.00     0.169 C 
HETATM    7  O   UNK N   1      93.047  13.909  44.113  0.00  0.00    -0.649 OA
BRANCH   6   8
HETATM    8  O   UNK N   1      94.178  15.824  44.099  0.00  0.00    -0.775 OA
HETATM    9  H   UNK N   1      94.087  15.926  43.128  0.00  0.00     0.167 HD
ENDBRANCH   6   8
ENDBRANCH   5   6
ENDBRANCH   4   5
BRANCH   4  10
HETATM   10  C   UNK N   1      90.931  18.067  44.879  0.00  0.00     0.382 C 
BRANCH  10  11
HETATM   11  C   UNK N   1      91.282  19.213  43.932  0.00  0.00     0.169 C 
HETATM   12  O   UNK N   1      92.366  19.508  43.455  0.00  0.00    -0.649 OA
BRANCH  11  13
HETATM   13  O   UNK N   1      90.187  19.927  43.583  0.00  0.00    -0.775 OA
HETATM   14  H   UNK N   1      89.677  19.969  44.418  0.00  0.00     0.167 HD
ENDBRANCH  11  13
ENDBRANCH  10  11
ENDBRANCH   4  10
ENDBRANCH   3   4
ENDBRANCH   2   3
ENDBRANCH   1   2
BRANCH   1  15
HETATM   15  C   UNK N   1      88.294  13.713  41.991  0.00  0.00     0.381 C 
BRANCH  15  16
HETATM   16  C   UNK N   1      87.385  13.388  43.174  0.00  0.00     0.169 C 
HETATM   17  O   UNK N   1      87.694  13.076  44.313  0.00  0.00    -0.649 OA
BRANCH  16  18
HETATM   18  O   UNK N   1      86.078  13.459  42.832  0.00  0.00    -0.775 OA
HETATM   19  H   UNK N   1      86.102  13.558  41.857  0.00  0.00     0.167 HD
ENDBRANCH  16  18
ENDBRANCH  15  16
ENDBRANCH   1  15
BRANCH   1  20
HETATM   20  C   UNK N   1      90.657  13.382  41.529  0.00  0.00     0.303 C 
BRANCH  20  21
HETATM   21  C   UNK N   1      91.483  14.393  40.691  0.00  0.00     0.304 C 
BRANCH  21  22
HETATM   22  N   UNK N   1      92.657  13.758  40.051  0.00  0.00     0.110 N 
BRANCH  22  23
HETATM   23  C   UNK N   1      92.267  12.596  39.217  0.00  0.00     0.382 C 
BRANCH  23  24
HETATM   24  C   UNK N   1      92.757  12.727  37.775  0.00  0.00     0.169 C 
HETATM   25  O   UNK N   1      92.576  11.973  36.832  0.00  0.00    -0.649 OA
BRANCH  24  26
HETATM   26  O   UNK N   1      93.515  13.835  37.607  0.00  0.00    -0.775 OA
HETATM   27  H   UNK N   1      93.131  14.249  36.805  0.00  0.00     0.167 HD
ENDBRANCH  24  26
ENDBRANCH  23  24
ENDBRANCH  22  23
BRANCH  22  28
HETATM   28  C   UNK N   1      93.660  13.356  41.066  0.00  0.00     0.382 C 
BRANCH  28  29
HETATM   29  C   UNK N   1      94.996  14.065  40.862  0.00  0.00     0.169 C 
HETATM   30  O   UNK N   1      95.553  14.356  39.814  0.00  0.00    -0.649 OA
BRANCH  29  31
HETATM   31  O   UNK N   1      95.578  14.388  42.039  0.00  0.00    -0.775 OA
HETATM   32  H   UNK N   1      95.027  15.129  42.368  0.00  0.00     0.167 HD
ENDBRANCH  29  31
ENDBRANCH  28  29
ENDBRANCH  22  28
ENDBRANCH  21  22
ENDBRANCH  20  21
ENDBRANCH   1  20
TORSDOF 21
ENDMDL
MODEL 9
REMARK VINA RESULT:      -6.2      1.827      6.800
REMARK  21 active torsions:
REMARK  status: ('A' for Active; 'I' for Inactive)
REMARK    1  A    between atoms: C_2  and  O_3 
REMARK    2  A    between atoms: C_2  and  C_4 
REMARK    3  A    between atoms: C_4  and  N_5 
REMARK    4  A    between atoms: N_5  and  C_6 
REMARK    5  A    between atoms: N_5  and  C_7 
REMARK    6  A    between atoms: C_6  and  C_8 
REMARK    7  A    between atoms: C_7  and  C_9 
REMARK    8  A    between atoms: C_8  and  O_11 
REMARK    9  A    between atoms: C_9  and  N_12 
REMARK   10  A    between atoms: N_12  and  C_13 
REMARK   11  A    between atoms: N_12  and  C_14 
REMARK   12  A    between atoms: C_13  and  C_15 
REMARK   13  A    between atoms: C_14  and  C_16 
REMARK   14  A    between atoms: C_15  and  O_18 
REMARK   15  A    between atoms: C_16  and  N_19 
REMARK   16  A    between atoms: N_19  and  C_20 
REMARK   17  A    between atoms: N_19  and  C_21 
REMARK   18  A    between atoms: C_20  and  C_22 
REMARK   19  A    between atoms: C_21  and  C_23 
REMARK   20  A    between atoms: C_22  and  O_25 
REMARK   21  A    between atoms: C_23  and  O_27 
ROOT
HETATM    1  N   UNK N   1      89.902  15.201  41.104  0.00  0.00     0.101 N 
ENDROOT
BRANCH   1   2
HETATM    2  C   UNK N   1      90.741  15.035  39.896  0.00  0.00     0.303 C 
BRANCH   2   3
HETATM    3  C   UNK N   1      91.706  13.827  40.029  0.00  0.00     0.304 C 
BRANCH   3   4
HETATM    4  N   UNK N   1      91.799  12.962  38.828  0.00  0.00     0.110 N 
BRANCH   4   5
HETATM    5  C   UNK N   1      93.006  13.344  38.052  0.00  0.00     0.382 C 
BRANCH   5   6
HETATM    6  C   UNK N   1      94.113  12.296  38.141  0.00  0.00     0.169 C 
HETATM    7  O   UNK N   1      94.151  11.181  37.644  0.00  0.00    -0.649 OA
BRANCH   6   8
HETATM    8  O   UNK N   1      95.173  12.743  38.854  0.00  0.00    -0.775 OA
HETATM    9  H   UNK N   1      95.580  13.409  38.261  0.00  0.00     0.167 HD
ENDBRANCH   6   8
ENDBRANCH   5   6
ENDBRANCH   4   5
BRANCH   4  10
HETATM   10  C   UNK N   1      90.576  13.053  37.988  0.00  0.00     0.382 C 
BRANCH  10  11
HETATM   11  C   UNK N   1      90.003  11.673  37.673  0.00  0.00     0.169 C 
HETATM   12  O   UNK N   1      90.422  10.827  36.899  0.00  0.00    -0.649 OA
BRANCH  11  13
HETATM   13  O   UNK N   1      88.909  11.403  38.422  0.00  0.00    -0.775 OA
HETATM   14  H   UNK N   1      88.172  11.715  37.856  0.00  0.00     0.167 HD
ENDBRANCH  11  13
ENDBRANCH  10  11
ENDBRANCH   4  10
ENDBRANCH   3   4
ENDBRANCH   2   3
ENDBRANCH   1   2
BRANCH   1  15
HETATM   15  C   UNK N   1      89.307  13.909  41.521  0.00  0.00     0.381 C 
BRANCH  15  16
HETATM   16  C   UNK N   1      87.912  13.704  40.934  0.00  0.00     0.169 C 
HETATM   17  O   UNK N   1      87.559  13.755  39.767  0.00  0.00    -0.649 OA
BRANCH  16  18
HETATM   18  O   UNK N   1      86.997  13.456  41.898  0.00  0.00    -0.775 OA
HETATM   19  H   UNK N   1      87.510  13.551  42.729  0.00  0.00     0.167 HD
ENDBRANCH  16  18
ENDBRANCH  15  16
ENDBRANCH   1  15
BRANCH   1  20
HETATM   20  C   UNK N   1      90.671  15.798  42.215  0.00  0.00     0.303 C 
BRANCH  20  21
HETATM   21  C   UNK N   1      89.870  15.870  43.542  0.00  0.00     0.304 C 
BRANCH  21  22
HETATM   22  N   UNK N   1      90.604  16.606  44.595  0.00  0.00     0.110 N 
BRANCH  22  23
HETATM   23  C   UNK N   1      91.605  17.536  44.020  0.00  0.00     0.382 C 
BRANCH  23  24
HETATM   24  C   UNK N   1      91.196  19.000  44.181  0.00  0.00     0.169 C 
HETATM   25  O   UNK N   1      90.995  19.839  43.317  0.00  0.00    -0.649 OA
BRANCH  24  26
HETATM   26  O   UNK N   1      91.099  19.348  45.485  0.00  0.00    -0.775 OA
HETATM   27  H   UNK N   1      91.293  18.509  45.954  0.00  0.00     0.167 HD
ENDBRANCH  24  26
ENDBRANCH  23  24
ENDBRANCH  22  23
BRANCH  22  28
HETATM   28  C   UNK N   1      91.249  15.668  45.545  0.00  0.00     0.382 C 
BRANCH  28  29
HETATM   29  C   UNK N   1      92.414  14.918  44.905  0.00  0.00     0.169 C 
HETATM   30  O   UNK N   1      93.515  15.344  44.590  0.00  0.00    -0.649 OA
BRANCH  29  31
HETATM   31  O   UNK N   1      92.117  13.616  44.694  0.00  0.00    -0.775 OA
HETATM   32  H   UNK N   1      92.477  13.169  45.490  0.00  0.00     0.167 HD
ENDBRANCH  29  31
ENDBRANCH  28  29
ENDBRANCH  22  28
ENDBRANCH  21  22
ENDBRANCH  20  21
ENDBRANCH   1  20
TORSDOF 21
ENDMDL
