MODEL 1
REMARK VINA RESULT:      -9.0      0.000      0.000
REMARK  7 active torsions:
REMARK  status: ('A' for Active; 'I' for Inactive)
REMARK    1  A    between atoms: S_1  and  N_4 
REMARK    2  A    between atoms: S_1  and  C_5 
REMARK    3  A    between atoms: N_4  and  C_6 
REMARK    4  A    between atoms: C_16  and  N_17 
REMARK       I    between atoms: N_17  and  C_18 
REMARK    5  A    between atoms: C_18  and  C_20 
REMARK    6  A    between atoms: C_21  and  C_23 
REMARK    7  A    between atoms: C_23  and  O_27 
ROOT
HETATM    1  C   UNK N   1      78.549  28.295  35.337  0.00  0.00     0.075 A 
HETATM    2  C   UNK N   1      79.217  29.056  36.299  0.00  0.00     0.027 A 
HETATM    3  C   UNK N   1      79.004  27.020  34.999  0.00  0.00     0.027 A 
HETATM    4  C   UNK N   1      80.339  28.526  36.943  0.00  0.00     0.031 A 
HETATM    5  C   UNK N   1      80.128  26.499  35.647  0.00  0.00     0.031 A 
HETATM    6  C   UNK N   1      80.798  27.243  36.629  0.00  0.00     0.035 A 
ENDROOT
BRANCH   6   7
HETATM    7  N   UNK N   1      81.929  26.655  37.226  0.00  0.00    -0.323 N 
HETATM    8  C   UNK N   1      83.047  27.315  37.697  0.00  0.00     0.257 C 
HETATM    9  O   UNK N   1      83.271  28.517  37.709  0.00  0.00    -0.267 OA
HETATM   10  H   UNK N   1      81.881  25.658  37.393  0.00  0.00     0.169 HD
BRANCH   8  11
HETATM   11  C   UNK N   1      84.092  26.413  38.224  0.00  0.00     0.049 A 
HETATM   12  C   UNK N   1      84.935  26.815  39.264  0.00  0.00     0.053 A 
HETATM   13  C   UNK N   1      85.976  25.971  39.676  0.00  0.00     0.019 A 
HETATM   14  C   UNK N   1      86.165  24.736  39.051  0.00  0.00     0.001 A 
HETATM   15  C   UNK N   1      85.318  24.337  38.016  0.00  0.00     0.001 A 
HETATM   16  C   UNK N   1      84.284  25.175  37.596  0.00  0.00     0.018 A 
BRANCH  12  17
HETATM   17  C   UNK N   1      84.686  28.075  39.988  0.00  0.00     0.177 C 
HETATM   18  O   UNK N   1      83.948  28.216  40.943  0.00  0.00    -0.646 OA
BRANCH  17  19
HETATM   19  O   UNK N   1      85.410  29.087  39.482  0.00  0.00    -0.773 OA
HETATM   20  H   UNK N   1      85.041  29.215  38.583  0.00  0.00     0.167 HD
ENDBRANCH  17  19
ENDBRANCH  12  17
ENDBRANCH   8  11
ENDBRANCH   6   7
BRANCH   1  21
HETATM   21  S   UNK N   1      77.128  28.986  34.521  0.00  0.00     0.247 S 
HETATM   22  O   UNK N   1      77.422  30.375  34.235  0.00  0.00    -0.205 OA
HETATM   23  O   UNK N   1      75.971  28.597  35.296  0.00  0.00    -0.205 OA
BRANCH  21  24
HETATM   24  N   UNK N   1      77.198  28.169  33.045  0.00  0.00    -0.160 NA
HETATM   25  H   UNK N   1      77.763  28.742  32.416  0.00  0.00     0.148 HD
BRANCH  24  26
HETATM   26  C   UNK N   1      75.890  28.059  32.430  0.00  0.00     0.136 A 
HETATM   27  S   UNK N   1      75.398  26.764  31.432  0.00  0.00    -0.070 SA
HETATM   28  C   UNK N   1      73.909  27.573  31.161  0.00  0.00     0.069 A 
HETATM   29  C   UNK N   1      73.920  28.789  31.814  0.00  0.00     0.097 A 
HETATM   30  N   UNK N   1      75.073  29.079  32.517  0.00  0.00    -0.350 N 
ATOM     31  HN  UNK N   1      75.258  29.946  33.023  1.00  0.00     0.166 HD
ENDBRANCH  24  26
ENDBRANCH  21  24
ENDBRANCH   1  21
TORSDOF 7
ENDMDL
MODEL 2
REMARK VINA RESULT:      -8.5      8.205      9.843
REMARK  7 active torsions:
REMARK  status: ('A' for Active; 'I' for Inactive)
REMARK    1  A    between atoms: S_1  and  N_4 
REMARK    2  A    between atoms: S_1  and  C_5 
REMARK    3  A    between atoms: N_4  and  C_6 
REMARK    4  A    between atoms: C_16  and  N_17 
REMARK       I    between atoms: N_17  and  C_18 
REMARK    5  A    between atoms: C_18  and  C_20 
REMARK    6  A    between atoms: C_21  and  C_23 
REMARK    7  A    between atoms: C_23  and  O_27 
ROOT
HETATM    1  C   UNK N   1      80.121  22.621  41.532  0.00  0.00     0.075 A 
HETATM    2  C   UNK N   1      80.429  22.679  42.893  0.00  0.00     0.027 A 
HETATM    3  C   UNK N   1      80.472  21.504  40.773  0.00  0.00     0.027 A 
HETATM    4  C   UNK N   1      81.075  21.600  43.503  0.00  0.00     0.031 A 
HETATM    5  C   UNK N   1      81.119  20.431  41.390  0.00  0.00     0.031 A 
HETATM    6  C   UNK N   1      81.418  20.466  42.761  0.00  0.00     0.035 A 
ENDROOT
BRANCH   6   7
HETATM    7  N   UNK N   1      82.083  19.352  43.307  0.00  0.00    -0.323 N 
HETATM    8  C   UNK N   1      81.504  18.306  43.999  0.00  0.00     0.257 C 
HETATM    9  O   UNK N   1      80.322  18.128  44.257  0.00  0.00    -0.267 OA
HETATM   10  H   UNK N   1      83.072  19.277  43.105  0.00  0.00     0.169 HD
BRANCH   8  11
HETATM   11  C   UNK N   1      82.476  17.310  44.493  0.00  0.00     0.049 A 
HETATM   12  C   UNK N   1      83.264  17.566  45.618  0.00  0.00     0.053 A 
HETATM   13  C   UNK N   1      84.241  16.639  46.005  0.00  0.00     0.019 A 
HETATM   14  C   UNK N   1      84.422  15.465  45.269  0.00  0.00     0.001 A 
HETATM   15  C   UNK N   1      83.631  15.211  44.147  0.00  0.00     0.001 A 
HETATM   16  C   UNK N   1      82.660  16.133  43.753  0.00  0.00     0.018 A 
BRANCH  12  17
HETATM   17  C   UNK N   1      83.018  18.757  46.452  0.00  0.00     0.177 C 
HETATM   18  O   UNK N   1      82.296  18.808  47.427  0.00  0.00    -0.646 OA
BRANCH  17  19
HETATM   19  O   UNK N   1      83.724  19.816  46.022  0.00  0.00    -0.773 OA
HETATM   20  H   UNK N   1      83.216  20.587  46.352  0.00  0.00     0.167 HD
ENDBRANCH  17  19
ENDBRANCH  12  17
ENDBRANCH   8  11
ENDBRANCH   6   7
BRANCH   1  21
HETATM   21  S   UNK N   1      79.305  24.005  40.769  0.00  0.00     0.247 S 
HETATM   22  O   UNK N   1      79.357  25.111  41.704  0.00  0.00    -0.205 OA
HETATM   23  O   UNK N   1      78.053  23.513  40.241  0.00  0.00    -0.205 OA
BRANCH  21  24
HETATM   24  N   UNK N   1      80.406  24.366  39.540  0.00  0.00    -0.160 NA
HETATM   25  H   UNK N   1      81.286  24.613  39.995  0.00  0.00     0.148 HD
BRANCH  24  26
HETATM   26  C   UNK N   1      79.999  25.533  38.782  0.00  0.00     0.136 A 
HETATM   27  S   UNK N   1      81.008  26.375  37.692  0.00  0.00    -0.070 SA
HETATM   28  C   UNK N   1      79.752  27.521  37.457  0.00  0.00     0.069 A 
HETATM   29  C   UNK N   1      78.679  27.200  38.263  0.00  0.00     0.097 A 
HETATM   30  N   UNK N   1      78.836  26.073  39.047  0.00  0.00    -0.350 N 
ATOM     31  HN  UNK N   1      78.157  25.719  39.721  1.00  0.00     0.166 HD
ENDBRANCH  24  26
ENDBRANCH  21  24
ENDBRANCH   1  21
TORSDOF 7
ENDMDL
MODEL 3
REMARK VINA RESULT:      -8.3     25.597     28.213
REMARK  7 active torsions:
REMARK  status: ('A' for Active; 'I' for Inactive)
REMARK    1  A    between atoms: S_1  and  N_4 
REMARK    2  A    between atoms: S_1  and  C_5 
REMARK    3  A    between atoms: N_4  and  C_6 
REMARK    4  A    between atoms: C_16  and  N_17 
REMARK       I    between atoms: N_17  and  C_18 
REMARK    5  A    between atoms: C_18  and  C_20 
REMARK    6  A    between atoms: C_21  and  C_23 
REMARK    7  A    between atoms: C_23  and  O_27 
ROOT
HETATM    1  C   UNK N   1      88.978  36.677  10.355  0.00  0.00     0.075 A 
HETATM    2  C   UNK N   1      87.664  36.398   9.975  0.00  0.00     0.027 A 
HETATM    3  C   UNK N   1      89.255  37.198  11.619  0.00  0.00     0.027 A 
HETATM    4  C   UNK N   1      86.619  36.626  10.876  0.00  0.00     0.031 A 
HETATM    5  C   UNK N   1      88.205  37.424  12.513  0.00  0.00     0.031 A 
HETATM    6  C   UNK N   1      86.881  37.131  12.152  0.00  0.00     0.035 A 
ENDROOT
BRANCH   6   7
HETATM    7  N   UNK N   1      85.878  37.399  13.103  0.00  0.00    -0.323 N 
HETATM    8  C   UNK N   1      85.025  36.478  13.680  0.00  0.00     0.257 C 
HETATM    9  O   UNK N   1      84.981  35.269  13.504  0.00  0.00    -0.267 OA
HETATM   10  H   UNK N   1      85.829  38.349  13.450  0.00  0.00     0.169 HD
BRANCH   8  11
HETATM   11  C   UNK N   1      84.042  37.076  14.606  0.00  0.00     0.049 A 
HETATM   12  C   UNK N   1      82.722  37.303  14.210  0.00  0.00     0.053 A 
HETATM   13  C   UNK N   1      81.840  37.958  15.081  0.00  0.00     0.019 A 
HETATM   14  C   UNK N   1      82.281  38.377  16.339  0.00  0.00     0.001 A 
HETATM   15  C   UNK N   1      83.600  38.146  16.732  0.00  0.00     0.001 A 
HETATM   16  C   UNK N   1      84.485  37.500  15.867  0.00  0.00     0.018 A 
BRANCH  12  17
HETATM   17  C   UNK N   1      82.225  36.783  12.922  0.00  0.00     0.177 C 
HETATM   18  O   UNK N   1      82.179  37.396  11.875  0.00  0.00    -0.646 OA
BRANCH  17  19
HETATM   19  O   UNK N   1      81.840  35.500  13.023  0.00  0.00    -0.773 OA
HETATM   20  H   UNK N   1      81.951  35.149  12.114  0.00  0.00     0.167 HD
ENDBRANCH  17  19
ENDBRANCH  12  17
ENDBRANCH   8  11
ENDBRANCH   6   7
BRANCH   1  21
HETATM   21  S   UNK N   1      90.294  36.389   9.194  0.00  0.00     0.247 S 
HETATM   22  O   UNK N   1      90.175  37.379   8.145  0.00  0.00    -0.205 OA
HETATM   23  O   UNK N   1      90.296  34.971   8.908  0.00  0.00    -0.205 OA
BRANCH  21  24
HETATM   24  N   UNK N   1      91.627  36.841  10.129  0.00  0.00    -0.160 NA
HETATM   25  H   UNK N   1      91.736  37.850  10.018  0.00  0.00     0.148 HD
BRANCH  24  26
HETATM   26  C   UNK N   1      92.853  36.243   9.639  0.00  0.00     0.136 A 
HETATM   27  S   UNK N   1      93.872  36.953   8.468  0.00  0.00    -0.070 SA
HETATM   28  C   UNK N   1      94.853  35.545   8.506  0.00  0.00     0.069 A 
HETATM   29  C   UNK N   1      94.302  34.624   9.373  0.00  0.00     0.097 A 
HETATM   30  N   UNK N   1      93.135  35.016  10.000  0.00  0.00    -0.350 N 
ATOM     31  HN  UNK N   1      92.583  34.444  10.640  1.00  0.00     0.166 HD
ENDBRANCH  24  26
ENDBRANCH  21  24
ENDBRANCH   1  21
TORSDOF 7
ENDMDL
MODEL 4
REMARK VINA RESULT:      -8.3      9.011     11.779
REMARK  7 active torsions:
REMARK  status: ('A' for Active; 'I' for Inactive)
REMARK    1  A    between atoms: S_1  and  N_4 
REMARK    2  A    between atoms: S_1  and  C_5 
REMARK    3  A    between atoms: N_4  and  C_6 
REMARK    4  A    between atoms: C_16  and  N_17 
REMARK       I    between atoms: N_17  and  C_18 
REMARK    5  A    between atoms: C_18  and  C_20 
REMARK    6  A    between atoms: C_21  and  C_23 
REMARK    7  A    between atoms: C_23  and  O_27 
ROOT
HETATM    1  C   UNK N   1      81.062  23.617  45.770  0.00  0.00     0.075 A 
HETATM    2  C   UNK N   1      80.155  24.200  44.882  0.00  0.00     0.027 A 
HETATM    3  C   UNK N   1      82.188  24.320  46.197  0.00  0.00     0.027 A 
HETATM    4  C   UNK N   1      80.369  25.507  44.434  0.00  0.00     0.031 A 
HETATM    5  C   UNK N   1      82.394  25.626  45.744  0.00  0.00     0.031 A 
HETATM    6  C   UNK N   1      81.482  26.232  44.867  0.00  0.00     0.035 A 
ENDROOT
BRANCH   6   7
HETATM    7  N   UNK N   1      81.766  27.545  44.444  0.00  0.00    -0.323 N 
HETATM    8  C   UNK N   1      83.016  28.077  44.196  0.00  0.00     0.257 C 
HETATM    9  O   UNK N   1      84.105  27.526  44.272  0.00  0.00    -0.267 OA
HETATM   10  H   UNK N   1      80.968  28.131  44.231  0.00  0.00     0.169 HD
BRANCH   8  11
HETATM   11  C   UNK N   1      82.991  29.504  43.816  0.00  0.00     0.049 A 
HETATM   12  C   UNK N   1      83.721  29.973  42.720  0.00  0.00     0.053 A 
HETATM   13  C   UNK N   1      83.749  31.347  42.443  0.00  0.00     0.019 A 
HETATM   14  C   UNK N   1      83.049  32.240  43.259  0.00  0.00     0.001 A 
HETATM   15  C   UNK N   1      82.319  31.767  44.351  0.00  0.00     0.001 A 
HETATM   16  C   UNK N   1      82.292  30.401  44.636  0.00  0.00     0.018 A 
BRANCH  12  17
HETATM   17  C   UNK N   1      84.386  29.029  41.803  0.00  0.00     0.177 C 
HETATM   18  O   UNK N   1      83.846  28.387  40.924  0.00  0.00    -0.646 OA
BRANCH  17  19
HETATM   19  O   UNK N   1      85.709  28.972  42.026  0.00  0.00    -0.773 OA
HETATM   20  H   UNK N   1      85.860  29.649  42.720  0.00  0.00     0.167 HD
ENDBRANCH  17  19
ENDBRANCH  12  17
ENDBRANCH   8  11
ENDBRANCH   6   7
BRANCH   1  21
HETATM   21  S   UNK N   1      80.780  21.950  46.324  0.00  0.00     0.247 S 
HETATM   22  O   UNK N   1      79.355  21.703  46.254  0.00  0.00    -0.205 OA
HETATM   23  O   UNK N   1      81.523  21.788  47.554  0.00  0.00    -0.205 OA
BRANCH  21  24
HETATM   24  N   UNK N   1      81.478  21.087  45.051  0.00  0.00    -0.160 NA
HETATM   25  H   UNK N   1      80.718  20.822  44.422  0.00  0.00     0.148 HD
BRANCH  24  26
HETATM   26  C   UNK N   1      82.077  19.848  45.509  0.00  0.00     0.136 A 
HETATM   27  S   UNK N   1      81.240  18.367  45.651  0.00  0.00    -0.070 SA
HETATM   28  C   UNK N   1      82.657  17.661  46.314  0.00  0.00     0.069 A 
HETATM   29  C   UNK N   1      83.643  18.620  46.419  0.00  0.00     0.097 A 
HETATM   30  N   UNK N   1      83.296  19.885  45.983  0.00  0.00    -0.350 N 
ATOM     31  HN  UNK N   1      83.893  20.711  46.025  1.00  0.00     0.166 HD
ENDBRANCH  24  26
ENDBRANCH  21  24
ENDBRANCH   1  21
TORSDOF 7
ENDMDL
MODEL 5
REMARK VINA RESULT:      -8.1     15.360     17.204
REMARK  7 active torsions:
REMARK  status: ('A' for Active; 'I' for Inactive)
REMARK    1  A    between atoms: S_1  and  N_4 
REMARK    2  A    between atoms: S_1  and  C_5 
REMARK    3  A    between atoms: N_4  and  C_6 
REMARK    4  A    between atoms: C_16  and  N_17 
REMARK       I    between atoms: N_17  and  C_18 
REMARK    5  A    between atoms: C_18  and  C_20 
REMARK    6  A    between atoms: C_21  and  C_23 
REMARK    7  A    between atoms: C_23  and  O_27 
ROOT
HETATM    1  C   UNK N   1      86.132  13.961  44.055  0.00  0.00     0.075 A 
HETATM    2  C   UNK N   1      86.475  13.114  42.999  0.00  0.00     0.027 A 
HETATM    3  C   UNK N   1      87.097  14.766  44.661  0.00  0.00     0.027 A 
HETATM    4  C   UNK N   1      87.793  13.089  42.533  0.00  0.00     0.031 A 
HETATM    5  C   UNK N   1      88.412  14.732  44.191  0.00  0.00     0.031 A 
HETATM    6  C   UNK N   1      88.768  13.901  43.118  0.00  0.00     0.035 A 
ENDROOT
BRANCH   6   7
HETATM    7  N   UNK N   1      90.116  13.914  42.710  0.00  0.00    -0.323 N 
HETATM    8  C   UNK N   1      90.733  14.879  41.940  0.00  0.00     0.257 C 
HETATM    9  O   UNK N   1      90.253  15.906  41.480  0.00  0.00    -0.267 OA
HETATM   10  H   UNK N   1      90.705  13.179  43.083  0.00  0.00     0.169 HD
BRANCH   8  11
HETATM   11  C   UNK N   1      92.148  14.583  41.635  0.00  0.00     0.049 A 
HETATM   12  C   UNK N   1      93.172  14.990  42.494  0.00  0.00     0.053 A 
HETATM   13  C   UNK N   1      94.508  14.775  42.128  0.00  0.00     0.019 A 
HETATM   14  C   UNK N   1      94.811  14.156  40.913  0.00  0.00     0.001 A 
HETATM   15  C   UNK N   1      93.784  13.748  40.059  0.00  0.00     0.001 A 
HETATM   16  C   UNK N   1      92.452  13.965  40.414  0.00  0.00     0.018 A 
BRANCH  12  17
HETATM   17  C   UNK N   1      92.860  15.561  43.817  0.00  0.00     0.177 C 
HETATM   18  O   UNK N   1      92.337  14.972  44.742  0.00  0.00    -0.646 OA
BRANCH  17  19
HETATM   19  O   UNK N   1      93.254  16.841  43.909  0.00  0.00    -0.773 OA
HETATM   20  H   UNK N   1      92.623  17.237  44.546  0.00  0.00     0.167 HD
ENDBRANCH  17  19
ENDBRANCH  12  17
ENDBRANCH   8  11
ENDBRANCH   6   7
BRANCH   1  21
HETATM   21  S   UNK N   1      84.452  13.976  44.640  0.00  0.00     0.247 S 
HETATM   22  O   UNK N   1      84.490  14.227  46.066  0.00  0.00    -0.205 OA
HETATM   23  O   UNK N   1      83.807  12.806  44.089  0.00  0.00    -0.205 OA
BRANCH  21  24
HETATM   24  N   UNK N   1      83.894  15.398  43.920  0.00  0.00    -0.160 NA
HETATM   25  H   UNK N   1      84.688  15.813  43.431  0.00  0.00     0.148 HD
BRANCH  24  26
HETATM   26  C   UNK N   1      83.472  16.371  44.909  0.00  0.00     0.136 A 
HETATM   27  S   UNK N   1      81.853  16.616  45.391  0.00  0.00    -0.070 SA
HETATM   28  C   UNK N   1      82.373  17.914  46.386  0.00  0.00     0.069 A 
HETATM   29  C   UNK N   1      83.733  18.090  46.238  0.00  0.00     0.097 A 
HETATM   30  N   UNK N   1      84.358  17.220  45.364  0.00  0.00    -0.350 N 
ATOM     31  HN  UNK N   1      85.347  17.237  45.114  1.00  0.00     0.166 HD
ENDBRANCH  24  26
ENDBRANCH  21  24
ENDBRANCH   1  21
TORSDOF 7
ENDMDL
MODEL 6
REMARK VINA RESULT:      -8.1      9.722     12.031
REMARK  7 active torsions:
REMARK  status: ('A' for Active; 'I' for Inactive)
REMARK    1  A    between atoms: S_1  and  N_4 
REMARK    2  A    between atoms: S_1  and  C_5 
REMARK    3  A    between atoms: N_4  and  C_6 
REMARK    4  A    between atoms: C_16  and  N_17 
REMARK       I    between atoms: N_17  and  C_18 
REMARK    5  A    between atoms: C_18  and  C_20 
REMARK    6  A    between atoms: C_21  and  C_23 
REMARK    7  A    between atoms: C_23  and  O_27 
ROOT
HETATM    1  C   UNK N   1      81.471  24.229  44.920  0.00  0.00     0.075 A 
HETATM    2  C   UNK N   1      80.761  23.329  44.122  0.00  0.00     0.027 A 
HETATM    3  C   UNK N   1      82.546  23.794  45.695  0.00  0.00     0.027 A 
HETATM    4  C   UNK N   1      81.145  21.985  44.085  0.00  0.00     0.031 A 
HETATM    5  C   UNK N   1      82.922  22.448  45.653  0.00  0.00     0.031 A 
HETATM    6  C   UNK N   1      82.231  21.536  44.842  0.00  0.00     0.035 A 
ENDROOT
BRANCH   6   7
HETATM    7  N   UNK N   1      82.661  20.196  44.864  0.00  0.00    -0.323 N 
HETATM    8  C   UNK N   1      82.152  19.182  45.651  0.00  0.00     0.257 C 
HETATM    9  O   UNK N   1      81.234  19.233  46.457  0.00  0.00    -0.267 OA
HETATM   10  H   UNK N   1      83.362  19.938  44.181  0.00  0.00     0.169 HD
BRANCH   8  11
HETATM   11  C   UNK N   1      82.852  17.891  45.484  0.00  0.00     0.049 A 
HETATM   12  C   UNK N   1      82.601  17.071  44.381  0.00  0.00     0.053 A 
HETATM   13  C   UNK N   1      83.211  15.812  44.301  0.00  0.00     0.019 A 
HETATM   14  C   UNK N   1      84.067  15.383  45.320  0.00  0.00     0.001 A 
HETATM   15  C   UNK N   1      84.317  16.207  46.418  0.00  0.00     0.001 A 
HETATM   16  C   UNK N   1      83.708  17.459  46.507  0.00  0.00     0.018 A 
BRANCH  12  17
HETATM   17  C   UNK N   1      81.773  17.553  43.260  0.00  0.00     0.177 C 
HETATM   18  O   UNK N   1      80.580  17.370  43.124  0.00  0.00    -0.646 OA
BRANCH  17  19
HETATM   19  O   UNK N   1      82.496  18.271  42.385  0.00  0.00    -0.773 OA
HETATM   20  H   UNK N   1      81.840  18.878  41.980  0.00  0.00     0.167 HD
ENDBRANCH  17  19
ENDBRANCH  12  17
ENDBRANCH   8  11
ENDBRANCH   6   7
BRANCH   1  21
HETATM   21  S   UNK N   1      80.965  25.933  44.961  0.00  0.00     0.247 S 
HETATM   22  O   UNK N   1      80.285  26.156  46.221  0.00  0.00    -0.205 OA
HETATM   23  O   UNK N   1      80.328  26.211  43.693  0.00  0.00    -0.205 OA
BRANCH  21  24
HETATM   24  N   UNK N   1      82.468  26.692  45.088  0.00  0.00    -0.160 NA
HETATM   25  H   UNK N   1      82.685  26.753  46.084  0.00  0.00     0.148 HD
BRANCH  24  26
HETATM   26  C   UNK N   1      82.423  28.056  44.598  0.00  0.00     0.136 A 
HETATM   27  S   UNK N   1      83.533  28.718  43.482  0.00  0.00    -0.070 SA
HETATM   28  C   UNK N   1      82.755  30.239  43.651  0.00  0.00     0.069 A 
HETATM   29  C   UNK N   1      81.740  30.136  44.580  0.00  0.00     0.097 A 
HETATM   30  N   UNK N   1      81.571  28.887  45.146  0.00  0.00    -0.350 N 
ATOM     31  HN  UNK N   1      80.894  28.649  45.871  1.00  0.00     0.166 HD
ENDBRANCH  24  26
ENDBRANCH  21  24
ENDBRANCH   1  21
TORSDOF 7
ENDMDL
MODEL 7
REMARK VINA RESULT:      -8.1     28.640     31.096
REMARK  7 active torsions:
REMARK  status: ('A' for Active; 'I' for Inactive)
REMARK    1  A    between atoms: S_1  and  N_4 
REMARK    2  A    between atoms: S_1  and  C_5 
REMARK    3  A    between atoms: N_4  and  C_6 
REMARK    4  A    between atoms: C_16  and  N_17 
REMARK       I    between atoms: N_17  and  C_18 
REMARK    5  A    between atoms: C_18  and  C_20 
REMARK    6  A    between atoms: C_21  and  C_23 
REMARK    7  A    between atoms: C_23  and  O_27 
ROOT
HETATM    1  C   UNK N   1      82.347   2.878  18.987  0.00  0.00     0.075 A 
HETATM    2  C   UNK N   1      81.108   2.588  19.563  0.00  0.00     0.027 A 
HETATM    3  C   UNK N   1      82.440   3.767  17.916  0.00  0.00     0.027 A 
HETATM    4  C   UNK N   1      79.955   3.210  19.075  0.00  0.00     0.031 A 
HETATM    5  C   UNK N   1      81.282   4.383  17.433  0.00  0.00     0.031 A 
HETATM    6  C   UNK N   1      80.033   4.117  18.014  0.00  0.00     0.035 A 
ENDROOT
BRANCH   6   7
HETATM    7  N   UNK N   1      78.912   4.766  17.463  0.00  0.00    -0.323 N 
HETATM    8  C   UNK N   1      78.538   6.079  17.669  0.00  0.00     0.257 C 
HETATM    9  O   UNK N   1      79.100   6.933  18.340  0.00  0.00    -0.267 OA
HETATM   10  H   UNK N   1      78.371   4.235  16.791  0.00  0.00     0.169 HD
BRANCH   8  11
HETATM   11  C   UNK N   1      77.280   6.453  16.992  0.00  0.00     0.049 A 
HETATM   12  C   UNK N   1      77.186   7.626  16.238  0.00  0.00     0.053 A 
HETATM   13  C   UNK N   1      75.952   7.998  15.687  0.00  0.00     0.019 A 
HETATM   14  C   UNK N   1      74.825   7.198  15.891  0.00  0.00     0.001 A 
HETATM   15  C   UNK N   1      74.923   6.026  16.643  0.00  0.00     0.001 A 
HETATM   16  C   UNK N   1      76.147   5.653  17.199  0.00  0.00     0.018 A 
BRANCH  12  17
HETATM   17  C   UNK N   1      78.389   8.425  15.942  0.00  0.00     0.177 C 
HETATM   18  O   UNK N   1      79.139   8.265  15.000  0.00  0.00    -0.646 OA
BRANCH  17  19
HETATM   19  O   UNK N   1      78.562   9.410  16.840  0.00  0.00    -0.773 OA
HETATM   20  H   UNK N   1      79.021   8.969  17.586  0.00  0.00     0.167 HD
ENDBRANCH  17  19
ENDBRANCH  12  17
ENDBRANCH   8  11
ENDBRANCH   6   7
BRANCH   1  21
HETATM   21  S   UNK N   1      83.803   2.073  19.616  0.00  0.00     0.247 S 
HETATM   22  O   UNK N   1      83.461   1.491  20.897  0.00  0.00    -0.205 OA
HETATM   23  O   UNK N   1      84.894   3.011  19.473  0.00  0.00    -0.205 OA
BRANCH  21  24
HETATM   24  N   UNK N   1      83.933   0.789  18.526  0.00  0.00    -0.160 NA
HETATM   25  H   UNK N   1      84.170  -0.039  19.073  0.00  0.00     0.148 HD
BRANCH  24  26
HETATM   26  C   UNK N   1      85.025   0.987  17.593  0.00  0.00     0.136 A 
HETATM   27  S   UNK N   1      84.835   1.533  15.987  0.00  0.00    -0.070 SA
HETATM   28  C   UNK N   1      86.520   1.324  15.744  0.00  0.00     0.069 A 
HETATM   29  C   UNK N   1      87.090   0.809  16.890  0.00  0.00     0.097 A 
HETATM   30  N   UNK N   1      86.222   0.587  17.942  0.00  0.00    -0.350 N 
ATOM     31  HN  UNK N   1      86.472   0.180  18.843  1.00  0.00     0.166 HD
ENDBRANCH  24  26
ENDBRANCH  21  24
ENDBRANCH   1  21
TORSDOF 7
ENDMDL
MODEL 8
REMARK VINA RESULT:      -8.0     28.646     30.713
REMARK  7 active torsions:
REMARK  status: ('A' for Active; 'I' for Inactive)
REMARK    1  A    between atoms: S_1  and  N_4 
REMARK    2  A    between atoms: S_1  and  C_5 
REMARK    3  A    between atoms: N_4  and  C_6 
REMARK    4  A    between atoms: C_16  and  N_17 
REMARK       I    between atoms: N_17  and  C_18 
REMARK    5  A    between atoms: C_18  and  C_20 
REMARK    6  A    between atoms: C_21  and  C_23 
REMARK    7  A    between atoms: C_23  and  O_27 
ROOT
HETATM    1  C   UNK N   1      82.073   2.692  19.141  0.00  0.00     0.075 A 
HETATM    2  C   UNK N   1      82.315   3.460  17.999  0.00  0.00     0.027 A 
HETATM    3  C   UNK N   1      80.793   2.622  19.690  0.00  0.00     0.027 A 
HETATM    4  C   UNK N   1      81.260   4.147  17.391  0.00  0.00     0.031 A 
HETATM    5  C   UNK N   1      79.744   3.314  19.076  0.00  0.00     0.031 A 
HETATM    6  C   UNK N   1      79.968   4.074  17.919  0.00  0.00     0.035 A 
ENDROOT
BRANCH   6   7
HETATM    7  N   UNK N   1      78.864   4.752  17.367  0.00  0.00    -0.323 N 
HETATM    8  C   UNK N   1      78.491   6.057  17.619  0.00  0.00     0.257 C 
HETATM    9  O   UNK N   1      79.039   6.878  18.341  0.00  0.00    -0.267 OA
HETATM   10  H   UNK N   1      78.339   4.254  16.659  0.00  0.00     0.169 HD
BRANCH   8  11
HETATM   11  C   UNK N   1      77.252   6.467  16.927  0.00  0.00     0.049 A 
HETATM   12  C   UNK N   1      77.196   7.649  16.185  0.00  0.00     0.053 A 
HETATM   13  C   UNK N   1      75.980   8.055  15.619  0.00  0.00     0.019 A 
HETATM   14  C   UNK N   1      74.832   7.278  15.796  0.00  0.00     0.001 A 
HETATM   15  C   UNK N   1      74.893   6.095  16.535  0.00  0.00     0.001 A 
HETATM   16  C   UNK N   1      76.099   5.689  17.106  0.00  0.00     0.018 A 
BRANCH  12  17
HETATM   17  C   UNK N   1      78.421   8.426  15.918  0.00  0.00     0.177 C 
HETATM   18  O   UNK N   1      79.198   8.242  15.003  0.00  0.00    -0.646 OA
BRANCH  17  19
HETATM   19  O   UNK N   1      78.581   9.418  16.810  0.00  0.00    -0.773 OA
HETATM   20  H   UNK N   1      79.538   9.391  17.023  0.00  0.00     0.167 HD
ENDBRANCH  17  19
ENDBRANCH  12  17
ENDBRANCH   8  11
ENDBRANCH   6   7
BRANCH   1  21
HETATM   21  S   UNK N   1      83.427   1.830  19.906  0.00  0.00     0.247 S 
HETATM   22  O   UNK N   1      84.575   2.713  19.883  0.00  0.00    -0.205 OA
HETATM   23  O   UNK N   1      83.469   0.510  19.317  0.00  0.00    -0.205 OA
BRANCH  21  24
HETATM   24  N   UNK N   1      82.891   1.785  21.507  0.00  0.00    -0.160 NA
HETATM   25  H   UNK N   1      83.148   2.678  21.930  0.00  0.00     0.148 HD
BRANCH  24  26
HETATM   26  C   UNK N   1      83.575   0.761  22.273  0.00  0.00     0.136 A 
HETATM   27  S   UNK N   1      82.840  -0.672  22.839  0.00  0.00    -0.070 SA
HETATM   28  C   UNK N   1      84.306  -1.078  23.634  0.00  0.00     0.069 A 
HETATM   29  C   UNK N   1      85.227  -0.068  23.445  0.00  0.00     0.097 A 
HETATM   30  N   UNK N   1      84.793   1.003  22.687  0.00  0.00    -0.350 N 
ATOM     31  HN  UNK N   1      85.333   1.844  22.484  1.00  0.00     0.166 HD
ENDBRANCH  24  26
ENDBRANCH  21  24
ENDBRANCH   1  21
TORSDOF 7
ENDMDL
MODEL 9
REMARK VINA RESULT:      -7.8      4.434      4.859
REMARK  7 active torsions:
REMARK  status: ('A' for Active; 'I' for Inactive)
REMARK    1  A    between atoms: S_1  and  N_4 
REMARK    2  A    between atoms: S_1  and  C_5 
REMARK    3  A    between atoms: N_4  and  C_6 
REMARK    4  A    between atoms: C_16  and  N_17 
REMARK       I    between atoms: N_17  and  C_18 
REMARK    5  A    between atoms: C_18  and  C_20 
REMARK    6  A    between atoms: C_21  and  C_23 
REMARK    7  A    between atoms: C_23  and  O_27 
ROOT
HETATM    1  C   UNK N   1      79.032  28.324  37.282  0.00  0.00     0.075 A 
HETATM    2  C   UNK N   1      80.257  27.727  36.978  0.00  0.00     0.027 A 
HETATM    3  C   UNK N   1      78.192  27.769  38.247  0.00  0.00     0.027 A 
HETATM    4  C   UNK N   1      80.653  26.574  37.663  0.00  0.00     0.031 A 
HETATM    5  C   UNK N   1      78.596  26.615  38.926  0.00  0.00     0.031 A 
HETATM    6  C   UNK N   1      79.832  26.014  38.645  0.00  0.00     0.035 A 
ENDROOT
BRANCH   6   7
HETATM    7  N   UNK N   1      80.161  24.848  39.361  0.00  0.00    -0.323 N 
HETATM    8  C   UNK N   1      79.374  23.722  39.505  0.00  0.00     0.257 C 
HETATM    9  O   UNK N   1      78.266  23.504  39.037  0.00  0.00    -0.267 OA
HETATM   10  H   UNK N   1      81.097  24.804  39.744  0.00  0.00     0.169 HD
BRANCH   8  11
HETATM   11  C   UNK N   1      79.977  22.680  40.362  0.00  0.00     0.049 A 
HETATM   12  C   UNK N   1      79.934  22.777  41.755  0.00  0.00     0.053 A 
HETATM   13  C   UNK N   1      80.597  21.820  42.537  0.00  0.00     0.019 A 
HETATM   14  C   UNK N   1      81.293  20.776  41.923  0.00  0.00     0.001 A 
HETATM   15  C   UNK N   1      81.331  20.681  40.531  0.00  0.00     0.001 A 
HETATM   16  C   UNK N   1      80.679  21.633  39.747  0.00  0.00     0.018 A 
BRANCH  12  17
HETATM   17  C   UNK N   1      79.127  23.823  42.410  0.00  0.00     0.177 C 
HETATM   18  O   UNK N   1      77.980  23.704  42.792  0.00  0.00    -0.646 OA
BRANCH  17  19
HETATM   19  O   UNK N   1      79.827  24.957  42.576  0.00  0.00    -0.773 OA
HETATM   20  H   UNK N   1      80.075  24.944  43.524  0.00  0.00     0.167 HD
ENDBRANCH  17  19
ENDBRANCH  12  17
ENDBRANCH   8  11
ENDBRANCH   6   7
BRANCH   1  21
HETATM   21  S   UNK N   1      78.540  29.786  36.397  0.00  0.00     0.247 S 
HETATM   22  O   UNK N   1      79.213  29.767  35.114  0.00  0.00    -0.205 OA
HETATM   23  O   UNK N   1      78.679  30.896  37.313  0.00  0.00    -0.205 OA
BRANCH  21  24
HETATM   24  N   UNK N   1      76.919  29.424  36.091  0.00  0.00    -0.160 NA
HETATM   25  H   UNK N   1      76.766  28.465  36.408  0.00  0.00     0.148 HD
BRANCH  24  26
HETATM   26  C   UNK N   1      76.626  29.434  34.672  0.00  0.00     0.136 A 
HETATM   27  S   UNK N   1      76.481  28.034  33.706  0.00  0.00    -0.070 SA
HETATM   28  C   UNK N   1      76.274  29.037  32.329  0.00  0.00     0.069 A 
HETATM   29  C   UNK N   1      76.378  30.360  32.704  0.00  0.00     0.097 A 
HETATM   30  N   UNK N   1      76.611  30.585  34.047  0.00  0.00    -0.350 N 
ATOM     31  HN  UNK N   1      76.749  31.497  34.482  1.00  0.00     0.166 HD
ENDBRANCH  24  26
ENDBRANCH  21  24
ENDBRANCH   1  21
TORSDOF 7
ENDMDL
