MODEL 1
REMARK VINA RESULT:      -7.0      0.000      0.000
REMARK  7 active torsions:
REMARK  status: ('A' for Active; 'I' for Inactive)
REMARK    1  A    between atoms: O_1  and  C_2 
REMARK    2  A    between atoms: O_1  and  C_3 
REMARK    3  A    between atoms: C_3  and  C_6 
REMARK    4  A    between atoms: C_6  and  O_10 
REMARK    5  A    between atoms: C_6  and  C_11 
REMARK    6  A    between atoms: C_11  and  N_15 
REMARK    7  A    between atoms: N_15  and  C_16 
ROOT
HETATM    1  O   UNK N   1      82.644  26.247  36.768  0.00  0.00    -0.348 OA
ENDROOT
BRANCH   1   2
HETATM    2  C   UNK N   1      83.714  25.906  37.568  0.00  0.00     0.081 A 
HETATM    3  C   UNK N   1      84.228  26.791  38.539  0.00  0.00     0.025 A 
HETATM    4  C   UNK N   1      85.333  26.381  39.288  0.00  0.00     0.045 A 
HETATM    5  C   UNK N   1      83.886  28.099  38.985  0.00  0.00     0.033 A 
HETATM    6  N   UNK N   1      85.631  27.402  40.162  0.00  0.00    -0.365 N 
HETATM    7  C   UNK N   1      85.954  25.139  39.100  0.00  0.00     0.030 A 
HETATM    8  C   UNK N   1      84.763  28.446  39.986  0.00  0.00     0.089 A 
HETATM    9  H   UNK N   1      86.391  27.381  40.827  0.00  0.00     0.165 HD
HETATM   10  C   UNK N   1      85.440  24.297  38.108  0.00  0.00     0.005 A 
HETATM   11  C   UNK N   1      84.339  24.675  37.343  0.00  0.00     0.038 A 
ENDBRANCH   1   2
BRANCH   1  12
HETATM   12  C   UNK N   1      81.451  25.622  37.267  0.00  0.00     0.209 C 
BRANCH  12  13
HETATM   13  C   UNK N   1      80.688  26.590  38.180  0.00  0.00     0.170 C 
BRANCH  13  14
HETATM   14  O   UNK N   1      80.199  25.897  39.339  0.00  0.00    -0.392 OA
HETATM   15  H   UNK N   1      80.519  26.425  40.098  0.00  0.00     0.210 HD
ENDBRANCH  13  14
BRANCH  13  16
HETATM   16  C   UNK N   1      79.502  27.275  37.471  0.00  0.00     0.303 C 
BRANCH  16  17
HETATM   17  N   UNK N   1      79.995  27.952  36.251  0.00  0.00     0.089 N 
HETATM   18  H   UNK N   1      79.872  27.318  35.460  0.00  0.00     0.316 HD
BRANCH  17  19
HETATM   19  C   UNK N   1      79.275  29.206  35.975  0.00  0.00     0.212 C 
HETATM   20  C   UNK N   1      78.771  29.773  37.305  0.00  0.00     0.042 C 
HETATM   21  C   UNK N   1      78.092  28.988  35.031  0.00  0.00     0.042 C 
ENDBRANCH  17  19
ENDBRANCH  16  17
ENDBRANCH  13  16
ENDBRANCH  12  13
ENDBRANCH   1  12
TORSDOF 7
ENDMDL
MODEL 2
REMARK VINA RESULT:      -6.9     13.829     16.132
REMARK  7 active torsions:
REMARK  status: ('A' for Active; 'I' for Inactive)
REMARK    1  A    between atoms: O_1  and  C_2 
REMARK    2  A    between atoms: O_1  and  C_3 
REMARK    3  A    between atoms: C_3  and  C_6 
REMARK    4  A    between atoms: C_6  and  O_10 
REMARK    5  A    between atoms: C_6  and  C_11 
REMARK    6  A    between atoms: C_11  and  N_15 
REMARK    7  A    between atoms: N_15  and  C_16 
ROOT
HETATM    1  O   UNK N   1      91.518  14.830  41.393  0.00  0.00    -0.348 OA
ENDROOT
BRANCH   1   2
HETATM    2  C   UNK N   1      92.084  14.239  40.283  0.00  0.00     0.081 A 
HETATM    3  C   UNK N   1      93.446  13.872  40.251  0.00  0.00     0.025 A 
HETATM    4  C   UNK N   1      93.949  13.305  39.078  0.00  0.00     0.045 A 
HETATM    5  C   UNK N   1      94.526  13.939  41.177  0.00  0.00     0.033 A 
HETATM    6  N   UNK N   1      95.279  13.028  39.300  0.00  0.00    -0.365 N 
HETATM    7  C   UNK N   1      93.161  13.105  37.937  0.00  0.00     0.030 A 
HETATM    8  C   UNK N   1      95.638  13.409  40.566  0.00  0.00     0.089 A 
HETATM    9  H   UNK N   1      95.899  12.614  38.617  0.00  0.00     0.165 HD
HETATM   10  C   UNK N   1      91.822  13.509  37.990  0.00  0.00     0.005 A 
HETATM   11  C   UNK N   1      91.289  14.077  39.145  0.00  0.00     0.038 A 
ENDBRANCH   1   2
BRANCH   1  12
HETATM   12  C   UNK N   1      90.136  15.119  41.134  0.00  0.00     0.209 C 
BRANCH  12  13
HETATM   13  C   UNK N   1      89.278  14.731  42.345  0.00  0.00     0.170 C 
BRANCH  13  14
HETATM   14  O   UNK N   1      87.940  14.418  41.924  0.00  0.00    -0.392 OA
HETATM   15  H   UNK N   1      87.488  15.285  41.870  0.00  0.00     0.210 HD
ENDBRANCH  13  14
BRANCH  13  16
HETATM   16  C   UNK N   1      89.217  15.840  43.416  0.00  0.00     0.303 C 
BRANCH  16  17
HETATM   17  N   UNK N   1      90.134  16.934  43.030  0.00  0.00     0.089 N 
HETATM   18  H   UNK N   1      89.573  17.729  42.720  0.00  0.00     0.316 HD
BRANCH  17  19
HETATM   19  C   UNK N   1      90.996  17.363  44.144  0.00  0.00     0.212 C 
HETATM   20  C   UNK N   1      91.079  18.892  44.125  0.00  0.00     0.042 C 
HETATM   21  C   UNK N   1      92.402  16.774  44.037  0.00  0.00     0.042 C 
ENDBRANCH  17  19
ENDBRANCH  16  17
ENDBRANCH  13  16
ENDBRANCH  12  13
ENDBRANCH   1  12
TORSDOF 7
ENDMDL
MODEL 3
REMARK VINA RESULT:      -6.6     13.830     16.154
REMARK  7 active torsions:
REMARK  status: ('A' for Active; 'I' for Inactive)
REMARK    1  A    between atoms: O_1  and  C_2 
REMARK    2  A    between atoms: O_1  and  C_3 
REMARK    3  A    between atoms: C_3  and  C_6 
REMARK    4  A    between atoms: C_6  and  O_10 
REMARK    5  A    between atoms: C_6  and  C_11 
REMARK    6  A    between atoms: C_11  and  N_15 
REMARK    7  A    between atoms: N_15  and  C_16 
ROOT
HETATM    1  O   UNK N   1      90.893  14.662  41.153  0.00  0.00    -0.348 OA
ENDROOT
BRANCH   1   2
HETATM    2  C   UNK N   1      92.204  14.390  40.825  0.00  0.00     0.081 A 
HETATM    3  C   UNK N   1      92.556  13.819  39.584  0.00  0.00     0.025 A 
HETATM    4  C   UNK N   1      93.904  13.548  39.340  0.00  0.00     0.045 A 
HETATM    5  C   UNK N   1      91.834  13.410  38.427  0.00  0.00     0.033 A 
HETATM    6  N   UNK N   1      93.987  13.011  38.075  0.00  0.00    -0.365 N 
HETATM    7  C   UNK N   1      94.908  13.806  40.282  0.00  0.00     0.030 A 
HETATM    8  C   UNK N   1      92.740  12.923  37.514  0.00  0.00     0.089 A 
HETATM    9  H   UNK N   1      94.847  12.716  37.635  0.00  0.00     0.165 HD
HETATM   10  C   UNK N   1      94.524  14.345  41.515  0.00  0.00     0.005 A 
HETATM   11  C   UNK N   1      93.188  14.627  41.790  0.00  0.00     0.038 A 
ENDBRANCH   1   2
BRANCH   1  12
HETATM   12  C   UNK N   1      90.533  13.942  42.342  0.00  0.00     0.209 C 
BRANCH  12  13
HETATM   13  C   UNK N   1      89.147  14.381  42.829  0.00  0.00     0.170 C 
BRANCH  13  14
HETATM   14  O   UNK N   1      88.258  14.546  41.712  0.00  0.00    -0.392 OA
HETATM   15  H   UNK N   1      87.709  15.323  41.944  0.00  0.00     0.210 HD
ENDBRANCH  13  14
BRANCH  13  16
HETATM   16  C   UNK N   1      89.183  15.696  43.635  0.00  0.00     0.303 C 
BRANCH  16  17
HETATM   17  N   UNK N   1      90.034  16.675  42.923  0.00  0.00     0.089 N 
HETATM   18  H   UNK N   1      89.445  17.451  42.617  0.00  0.00     0.316 HD
BRANCH  17  19
HETATM   19  C   UNK N   1      91.114  17.203  43.773  0.00  0.00     0.212 C 
HETATM   20  C   UNK N   1      91.047  16.496  45.129  0.00  0.00     0.042 C 
HETATM   21  C   UNK N   1      90.993  18.713  43.977  0.00  0.00     0.042 C 
ENDBRANCH  17  19
ENDBRANCH  16  17
ENDBRANCH  13  16
ENDBRANCH  12  13
ENDBRANCH   1  12
TORSDOF 7
ENDMDL
MODEL 4
REMARK VINA RESULT:      -6.5     14.939     16.878
REMARK  7 active torsions:
REMARK  status: ('A' for Active; 'I' for Inactive)
REMARK    1  A    between atoms: O_1  and  C_2 
REMARK    2  A    between atoms: O_1  and  C_3 
REMARK    3  A    between atoms: C_3  and  C_6 
REMARK    4  A    between atoms: C_6  and  O_10 
REMARK    5  A    between atoms: C_6  and  C_11 
REMARK    6  A    between atoms: C_11  and  N_15 
REMARK    7  A    between atoms: N_15  and  C_16 
ROOT
HETATM    1  O   UNK N   1      93.325  14.075  41.968  0.00  0.00    -0.348 OA
ENDROOT
BRANCH   1   2
HETATM    2  C   UNK N   1      92.490  14.975  42.596  0.00  0.00     0.081 A 
HETATM    3  C   UNK N   1      91.097  14.978  42.372  0.00  0.00     0.025 A 
HETATM    4  C   UNK N   1      90.325  15.941  43.024  0.00  0.00     0.045 A 
HETATM    5  C   UNK N   1      90.206  14.193  41.586  0.00  0.00     0.033 A 
HETATM    6  N   UNK N   1      89.016  15.729  42.654  0.00  0.00    -0.365 N 
HETATM    7  C   UNK N   1      90.881  16.907  43.873  0.00  0.00     0.030 A 
HETATM    8  C   UNK N   1      88.934  14.675  41.784  0.00  0.00     0.089 A 
HETATM    9  H   UNK N   1      88.235  16.284  42.974  0.00  0.00     0.165 HD
HETATM   10  C   UNK N   1      92.269  16.897  44.051  0.00  0.00     0.005 A 
HETATM   11  C   UNK N   1      93.069  15.950  43.415  0.00  0.00     0.038 A 
ENDBRANCH   1   2
BRANCH   1  12
HETATM   12  C   UNK N   1      94.611  14.677  41.755  0.00  0.00     0.209 C 
BRANCH  12  13
HETATM   13  C   UNK N   1      95.410  13.869  40.724  0.00  0.00     0.170 C 
BRANCH  13  14
HETATM   14  O   UNK N   1      96.200  14.749  39.909  0.00  0.00    -0.392 OA
HETATM   15  H   UNK N   1      97.073  14.310  39.846  0.00  0.00     0.210 HD
ENDBRANCH  13  14
BRANCH  13  16
HETATM   16  C   UNK N   1      94.512  13.012  39.808  0.00  0.00     0.303 C 
BRANCH  16  17
HETATM   17  N   UNK N   1      93.791  13.901  38.871  0.00  0.00     0.089 N 
HETATM   18  H   UNK N   1      94.328  13.958  38.004  0.00  0.00     0.316 HD
BRANCH  17  19
HETATM   19  C   UNK N   1      92.437  13.413  38.563  0.00  0.00     0.212 C 
HETATM   20  C   UNK N   1      92.524  12.494  37.342  0.00  0.00     0.042 C 
HETATM   21  C   UNK N   1      91.469  14.560  38.271  0.00  0.00     0.042 C 
ENDBRANCH  17  19
ENDBRANCH  16  17
ENDBRANCH  13  16
ENDBRANCH  12  13
ENDBRANCH   1  12
TORSDOF 7
ENDMDL
MODEL 5
REMARK VINA RESULT:      -6.4     14.481     15.778
REMARK  7 active torsions:
REMARK  status: ('A' for Active; 'I' for Inactive)
REMARK    1  A    between atoms: O_1  and  C_2 
REMARK    2  A    between atoms: O_1  and  C_3 
REMARK    3  A    between atoms: C_3  and  C_6 
REMARK    4  A    between atoms: C_6  and  O_10 
REMARK    5  A    between atoms: C_6  and  C_11 
REMARK    6  A    between atoms: C_11  and  N_15 
REMARK    7  A    between atoms: N_15  and  C_16 
ROOT
HETATM    1  O   UNK N   1      90.035  14.797  46.165  0.00  0.00    -0.348 OA
ENDROOT
BRANCH   1   2
HETATM    2  C   UNK N   1      91.183  14.984  45.425  0.00  0.00     0.081 A 
HETATM    3  C   UNK N   1      91.527  16.244  44.891  0.00  0.00     0.025 A 
HETATM    4  C   UNK N   1      92.692  16.342  44.128  0.00  0.00     0.045 A 
HETATM    5  C   UNK N   1      90.944  17.542  44.930  0.00  0.00     0.033 A 
HETATM    6  N   UNK N   1      92.810  17.657  43.737  0.00  0.00    -0.365 N 
HETATM    7  C   UNK N   1      93.516  15.241  43.862  0.00  0.00     0.030 A 
HETATM    8  C   UNK N   1      91.757  18.391  44.216  0.00  0.00     0.089 A 
HETATM    9  H   UNK N   1      93.562  18.019  43.168  0.00  0.00     0.165 HD
HETATM   10  C   UNK N   1      93.131  13.998  44.379  0.00  0.00     0.005 A 
HETATM   11  C   UNK N   1      91.975  13.865  45.144  0.00  0.00     0.038 A 
ENDBRANCH   1   2
BRANCH   1  12
HETATM   12  C   UNK N   1      89.152  13.904  45.470  0.00  0.00     0.209 C 
BRANCH  12  13
HETATM   13  C   UNK N   1      88.285  14.685  44.473  0.00  0.00     0.170 C 
BRANCH  13  14
HETATM   14  O   UNK N   1      87.030  15.036  45.077  0.00  0.00    -0.392 OA
HETATM   15  H   UNK N   1      86.818  15.920  44.713  0.00  0.00     0.210 HD
ENDBRANCH  13  14
BRANCH  13  16
HETATM   16  C   UNK N   1      88.012  13.901  43.174  0.00  0.00     0.303 C 
BRANCH  16  17
HETATM   17  N   UNK N   1      88.559  14.660  42.028  0.00  0.00     0.089 N 
HETATM   18  H   UNK N   1      88.319  15.645  42.151  0.00  0.00     0.316 HD
BRANCH  17  19
HETATM   19  C   UNK N   1      90.022  14.536  41.919  0.00  0.00     0.212 C 
HETATM   20  C   UNK N   1      90.474  15.277  40.658  0.00  0.00     0.042 C 
HETATM   21  C   UNK N   1      90.466  13.075  41.840  0.00  0.00     0.042 C 
ENDBRANCH  17  19
ENDBRANCH  16  17
ENDBRANCH  13  16
ENDBRANCH  12  13
ENDBRANCH   1  12
TORSDOF 7
ENDMDL
MODEL 6
REMARK VINA RESULT:      -6.1     24.687     26.903
REMARK  7 active torsions:
REMARK  status: ('A' for Active; 'I' for Inactive)
REMARK    1  A    between atoms: O_1  and  C_2 
REMARK    2  A    between atoms: O_1  and  C_3 
REMARK    3  A    between atoms: C_3  and  C_6 
REMARK    4  A    between atoms: C_6  and  O_10 
REMARK    5  A    between atoms: C_6  and  C_11 
REMARK    6  A    between atoms: C_11  and  N_15 
REMARK    7  A    between atoms: N_15  and  C_16 
ROOT
HETATM    1  O   UNK N   1      81.565  39.080  12.780  0.00  0.00    -0.348 OA
ENDROOT
BRANCH   1   2
HETATM    2  C   UNK N   1      82.873  38.729  12.522  0.00  0.00     0.081 A 
HETATM    3  C   UNK N   1      83.340  37.411  12.713  0.00  0.00     0.025 A 
HETATM    4  C   UNK N   1      84.687  37.144  12.456  0.00  0.00     0.045 A 
HETATM    5  C   UNK N   1      82.747  36.188  13.136  0.00  0.00     0.033 A 
HETATM    6  N   UNK N   1      84.888  35.805  12.703  0.00  0.00    -0.365 N 
HETATM    7  C   UNK N   1      85.586  38.133  12.036  0.00  0.00     0.030 A 
HETATM    8  C   UNK N   1      83.721  35.218  13.116  0.00  0.00     0.089 A 
HETATM    9  H   UNK N   1      85.775  35.332  12.603  0.00  0.00     0.165 HD
HETATM   10  C   UNK N   1      85.099  39.436  11.887  0.00  0.00     0.005 A 
HETATM   11  C   UNK N   1      83.762  39.737  12.134  0.00  0.00     0.038 A 
ENDBRANCH   1   2
BRANCH   1  12
HETATM   12  C   UNK N   1      81.510  39.917  13.945  0.00  0.00     0.209 C 
BRANCH  12  13
HETATM   13  C   UNK N   1      81.521  39.057  15.216  0.00  0.00     0.170 C 
BRANCH  13  14
HETATM   14  O   UNK N   1      80.194  38.598  15.516  0.00  0.00    -0.392 OA
HETATM   15  H   UNK N   1      80.113  37.746  15.041  0.00  0.00     0.210 HD
ENDBRANCH  13  14
BRANCH  13  16
HETATM   16  C   UNK N   1      82.078  39.809  16.442  0.00  0.00     0.303 C 
BRANCH  16  17
HETATM   17  N   UNK N   1      83.241  39.067  16.976  0.00  0.00     0.089 N 
HETATM   18  H   UNK N   1      82.930  38.132  17.244  0.00  0.00     0.316 HD
BRANCH  17  19
HETATM   19  C   UNK N   1      84.329  38.944  15.992  0.00  0.00     0.212 C 
HETATM   20  C   UNK N   1      84.917  37.534  16.099  0.00  0.00     0.042 C 
HETATM   21  C   UNK N   1      85.431  39.977  16.229  0.00  0.00     0.042 C 
ENDBRANCH  17  19
ENDBRANCH  16  17
ENDBRANCH  13  16
ENDBRANCH  12  13
ENDBRANCH   1  12
TORSDOF 7
ENDMDL
MODEL 7
REMARK VINA RESULT:      -6.1     25.716     26.371
REMARK  7 active torsions:
REMARK  status: ('A' for Active; 'I' for Inactive)
REMARK    1  A    between atoms: O_1  and  C_2 
REMARK    2  A    between atoms: O_1  and  C_3 
REMARK    3  A    between atoms: C_3  and  C_6 
REMARK    4  A    between atoms: C_6  and  O_10 
REMARK    5  A    between atoms: C_6  and  C_11 
REMARK    6  A    between atoms: C_11  and  N_15 
REMARK    7  A    between atoms: N_15  and  C_16 
ROOT
HETATM    1  O   UNK N   1      84.438  39.248  15.547  0.00  0.00    -0.348 OA
ENDROOT
BRANCH   1   2
HETATM    2  C   UNK N   1      84.972  38.301  14.699  0.00  0.00     0.081 A 
HETATM    3  C   UNK N   1      84.161  37.361  14.030  0.00  0.00     0.025 A 
HETATM    4  C   UNK N   1      84.784  36.417  13.210  0.00  0.00     0.045 A 
HETATM    5  C   UNK N   1      82.762  37.103  13.973  0.00  0.00     0.033 A 
HETATM    6  N   UNK N   1      83.790  35.631  12.670  0.00  0.00    -0.365 N 
HETATM    7  C   UNK N   1      86.173  36.360  13.044  0.00  0.00     0.030 A 
HETATM    8  C   UNK N   1      82.564  36.038  13.126  0.00  0.00     0.089 A 
HETATM    9  H   UNK N   1      83.951  34.860  12.038  0.00  0.00     0.165 HD
HETATM   10  C   UNK N   1      86.953  37.287  13.745  0.00  0.00     0.005 A 
HETATM   11  C   UNK N   1      86.364  38.242  14.571  0.00  0.00     0.038 A 
ENDBRANCH   1   2
BRANCH   1  12
HETATM   12  C   UNK N   1      85.163  40.479  15.415  0.00  0.00     0.209 C 
BRANCH  12  13
HETATM   13  C   UNK N   1      84.616  41.525  16.396  0.00  0.00     0.170 C 
BRANCH  13  14
HETATM   14  O   UNK N   1      84.513  40.962  17.713  0.00  0.00    -0.392 OA
HETATM   15  H   UNK N   1      83.625  41.229  18.028  0.00  0.00     0.210 HD
ENDBRANCH  13  14
BRANCH  13  16
HETATM   16  C   UNK N   1      83.236  42.073  15.978  0.00  0.00     0.303 C 
BRANCH  16  17
HETATM   17  N   UNK N   1      82.185  41.147  16.452  0.00  0.00     0.089 N 
HETATM   18  H   UNK N   1      81.736  41.562  17.270  0.00  0.00     0.316 HD
BRANCH  17  19
HETATM   19  C   UNK N   1      81.162  40.886  15.427  0.00  0.00     0.212 C 
HETATM   20  C   UNK N   1      80.559  39.504  15.689  0.00  0.00     0.042 C 
HETATM   21  C   UNK N   1      81.746  40.928  14.014  0.00  0.00     0.042 C 
ENDBRANCH  17  19
ENDBRANCH  16  17
ENDBRANCH  13  16
ENDBRANCH  12  13
ENDBRANCH   1  12
TORSDOF 7
ENDMDL
MODEL 8
REMARK VINA RESULT:      -6.1     10.006     12.416
REMARK  7 active torsions:
REMARK  status: ('A' for Active; 'I' for Inactive)
REMARK    1  A    between atoms: O_1  and  C_2 
REMARK    2  A    between atoms: O_1  and  C_3 
REMARK    3  A    between atoms: C_3  and  C_6 
REMARK    4  A    between atoms: C_6  and  O_10 
REMARK    5  A    between atoms: C_6  and  C_11 
REMARK    6  A    between atoms: C_11  and  N_15 
REMARK    7  A    between atoms: N_15  and  C_16 
ROOT
HETATM    1  O   UNK N   1      81.462  19.427  46.262  0.00  0.00    -0.348 OA
ENDROOT
BRANCH   1   2
HETATM    2  C   UNK N   1      81.444  19.654  44.903  0.00  0.00     0.081 A 
HETATM    3  C   UNK N   1      81.401  18.593  43.973  0.00  0.00     0.025 A 
HETATM    4  C   UNK N   1      81.414  18.907  42.612  0.00  0.00     0.045 A 
HETATM    5  C   UNK N   1      81.348  17.174  44.072  0.00  0.00     0.033 A 
HETATM    6  N   UNK N   1      81.355  17.717  41.922  0.00  0.00    -0.365 N 
HETATM    7  C   UNK N   1      81.484  20.224  42.141  0.00  0.00     0.030 A 
HETATM    8  C   UNK N   1      81.316  16.663  42.796  0.00  0.00     0.089 A 
HETATM    9  H   UNK N   1      81.354  17.640  40.915  0.00  0.00     0.165 HD
HETATM   10  C   UNK N   1      81.557  21.252  43.088  0.00  0.00     0.005 A 
HETATM   11  C   UNK N   1      81.545  20.974  44.453  0.00  0.00     0.038 A 
ENDBRANCH   1   2
BRANCH   1  12
HETATM   12  C   UNK N   1      82.188  20.478  46.917  0.00  0.00     0.209 C 
BRANCH  12  13
HETATM   13  C   UNK N   1      83.191  19.887  47.916  0.00  0.00     0.170 C 
BRANCH  13  14
HETATM   14  O   UNK N   1      84.501  20.427  47.681  0.00  0.00    -0.392 OA
HETATM   15  H   UNK N   1      85.085  19.938  48.296  0.00  0.00     0.210 HD
ENDBRANCH  13  14
BRANCH  13  16
HETATM   16  C   UNK N   1      83.266  18.348  47.850  0.00  0.00     0.303 C 
BRANCH  16  17
HETATM   17  N   UNK N   1      84.174  17.956  46.749  0.00  0.00     0.089 N 
HETATM   18  H   UNK N   1      85.134  18.147  47.041  0.00  0.00     0.316 HD
BRANCH  17  19
HETATM   19  C   UNK N   1      84.055  16.530  46.404  0.00  0.00     0.212 C 
HETATM   20  C   UNK N   1      84.697  15.710  47.526  0.00  0.00     0.042 C 
HETATM   21  C   UNK N   1      84.741  16.206  45.077  0.00  0.00     0.042 C 
ENDBRANCH  17  19
ENDBRANCH  16  17
ENDBRANCH  13  16
ENDBRANCH  12  13
ENDBRANCH   1  12
TORSDOF 7
ENDMDL
MODEL 9
REMARK VINA RESULT:      -6.1     14.957     17.553
REMARK  7 active torsions:
REMARK  status: ('A' for Active; 'I' for Inactive)
REMARK    1  A    between atoms: O_1  and  C_2 
REMARK    2  A    between atoms: O_1  and  C_3 
REMARK    3  A    between atoms: C_3  and  C_6 
REMARK    4  A    between atoms: C_6  and  O_10 
REMARK    5  A    between atoms: C_6  and  C_11 
REMARK    6  A    between atoms: C_11  and  N_15 
REMARK    7  A    between atoms: N_15  and  C_16 
ROOT
HETATM    1  O   UNK N   1      93.792  13.965  42.206  0.00  0.00    -0.348 OA
ENDROOT
BRANCH   1   2
HETATM    2  C   UNK N   1      92.537  14.446  41.902  0.00  0.00     0.081 A 
HETATM    3  C   UNK N   1      91.917  15.450  42.675  0.00  0.00     0.025 A 
HETATM    4  C   UNK N   1      90.632  15.862  42.317  0.00  0.00     0.045 A 
HETATM    5  C   UNK N   1      92.293  16.209  43.820  0.00  0.00     0.033 A 
HETATM    6  N   UNK N   1      90.258  16.843  43.207  0.00  0.00    -0.365 N 
HETATM    7  C   UNK N   1      89.935  15.306  41.236  0.00  0.00     0.030 A 
HETATM    8  C   UNK N   1      91.256  17.061  44.120  0.00  0.00     0.089 A 
HETATM    9  H   UNK N   1      89.369  17.323  43.189  0.00  0.00     0.165 HD
HETATM   10  C   UNK N   1      90.563  14.290  40.507  0.00  0.00     0.005 A 
HETATM   11  C   UNK N   1      91.845  13.857  40.838  0.00  0.00     0.038 A 
ENDBRANCH   1   2
BRANCH   1  12
HETATM   12  C   UNK N   1      94.787  14.762  41.546  0.00  0.00     0.209 C 
BRANCH  12  13
HETATM   13  C   UNK N   1      95.826  13.858  40.870  0.00  0.00     0.170 C 
BRANCH  13  14
HETATM   14  O   UNK N   1      96.388  14.519  39.725  0.00  0.00    -0.392 OA
HETATM   15  H   UNK N   1      96.164  13.939  38.969  0.00  0.00     0.210 HD
ENDBRANCH  13  14
BRANCH  13  16
HETATM   16  C   UNK N   1      95.242  12.502  40.425  0.00  0.00     0.303 C 
BRANCH  16  17
HETATM   17  N   UNK N   1      95.107  12.493  38.952  0.00  0.00     0.089 N 
HETATM   18  H   UNK N   1      95.851  11.910  38.565  0.00  0.00     0.316 HD
BRANCH  17  19
HETATM   19  C   UNK N   1      93.807  11.964  38.510  0.00  0.00     0.212 C 
HETATM   20  C   UNK N   1      94.045  10.618  37.821  0.00  0.00     0.042 C 
HETATM   21  C   UNK N   1      93.103  12.916  37.543  0.00  0.00     0.042 C 
ENDBRANCH  17  19
ENDBRANCH  16  17
ENDBRANCH  13  16
ENDBRANCH  12  13
ENDBRANCH   1  12
TORSDOF 7
ENDMDL
