MODEL 1
REMARK VINA RESULT:      -6.7      0.000      0.000
REMARK  5 active torsions:
REMARK  status: ('A' for Active; 'I' for Inactive)
REMARK       I    between atoms: C_2  and  N_3 
REMARK    1  A    between atoms: C_2  and  C_4 
REMARK    2  A    between atoms: N_3  and  C_5 
REMARK    3  A    between atoms: C_12  and  C_13 
REMARK    4  A    between atoms: C_13  and  N_14 
REMARK    5  A    between atoms: N_14  and  N_15 
ROOT
HETATM    1  C   UNK N   1      83.412  31.078  43.251  0.00  0.00     0.032 A 
HETATM    2  C   UNK N   1      83.462  29.682  43.324  0.00  0.00     0.017 A 
HETATM    3  C   UNK N   1      83.905  31.727  42.114  0.00  0.00     0.017 A 
HETATM    4  C   UNK N   1      83.977  28.944  42.254  0.00  0.00     0.009 A 
HETATM    5  C   UNK N   1      84.423  30.987  41.047  0.00  0.00     0.009 A 
HETATM    6  C   UNK N   1      84.466  29.587  41.106  0.00  0.00    -0.044 A 
ENDROOT
BRANCH   1   7
HETATM    7  C   UNK N   1      82.872  31.914  44.360  0.00  0.00     0.251 C 
HETATM    8  O   UNK N   1      83.276  31.749  45.507  0.00  0.00    -0.268 OA
HETATM    9  N   UNK N   1      81.944  32.874  44.013  0.00  0.00    -0.353 N 
HETATM   10  H   UNK N   1      81.691  33.000  43.044  0.00  0.00     0.163 HD
BRANCH   9  11
HETATM   11  C   UNK N   1      81.306  33.722  45.010  0.00  0.00     0.076 C 
HETATM   12  C   UNK N   1      80.975  35.085  44.407  0.00  0.00     0.032 C 
HETATM   13  C   UNK N   1      80.047  33.049  45.552  0.00  0.00     0.032 C 
ENDBRANCH   9  11
ENDBRANCH   1   7
BRANCH   6  14
HETATM   14  C   UNK N   1      84.997  28.788  39.935  0.00  0.00     0.143 C 
BRANCH  14  15
HETATM   15  N   UNK N   1      85.070  27.336  40.177  0.00  0.00    -0.257 NA
HETATM   16  H   UNK N   1      84.608  27.130  41.066  0.00  0.00     0.141 HD
BRANCH  15  17
HETATM   17  N   UNK N   1      84.452  26.619  39.077  0.00  0.00    -0.265 NA
HETATM   18  C   UNK N   1      83.588  27.537  38.342  0.00  0.00     0.126 C 
HETATM   19  H   UNK N   1      85.136  26.202  38.441  0.00  0.00     0.140 HD
ENDBRANCH  15  17
ENDBRANCH  14  15
ENDBRANCH   6  14
TORSDOF 5
ENDMDL
MODEL 2
REMARK VINA RESULT:      -6.6     16.080     18.650
REMARK  5 active torsions:
REMARK  status: ('A' for Active; 'I' for Inactive)
REMARK       I    between atoms: C_2  and  N_3 
REMARK    1  A    between atoms: C_2  and  C_4 
REMARK    2  A    between atoms: N_3  and  C_5 
REMARK    3  A    between atoms: C_12  and  C_13 
REMARK    4  A    between atoms: C_13  and  N_14 
REMARK    5  A    between atoms: N_14  and  N_15 
ROOT
HETATM    1  C   UNK N   1      91.055  14.862  41.021  0.00  0.00     0.032 A 
HETATM    2  C   UNK N   1      90.436  14.836  39.767  0.00  0.00     0.017 A 
HETATM    3  C   UNK N   1      92.321  14.288  41.177  0.00  0.00     0.017 A 
HETATM    4  C   UNK N   1      91.096  14.263  38.674  0.00  0.00     0.009 A 
HETATM    5  C   UNK N   1      92.977  13.714  40.084  0.00  0.00     0.009 A 
HETATM    6  C   UNK N   1      92.370  13.693  38.821  0.00  0.00    -0.044 A 
ENDROOT
BRANCH   1   7
HETATM    7  C   UNK N   1      90.400  15.460  42.218  0.00  0.00     0.251 C 
HETATM    8  O   UNK N   1      89.177  15.450  42.320  0.00  0.00    -0.268 OA
HETATM    9  N   UNK N   1      91.237  15.977  43.185  0.00  0.00    -0.353 N 
HETATM   10  H   UNK N   1      92.238  15.908  43.071  0.00  0.00     0.163 HD
BRANCH   9  11
HETATM   11  C   UNK N   1      90.722  16.632  44.379  0.00  0.00     0.076 C 
HETATM   12  C   UNK N   1      91.091  15.828  45.622  0.00  0.00     0.032 C 
HETATM   13  C   UNK N   1      91.258  18.058  44.476  0.00  0.00     0.032 C 
ENDBRANCH   9  11
ENDBRANCH   1   7
BRANCH   6  14
HETATM   14  C   UNK N   1      93.097  13.099  37.633  0.00  0.00     0.143 C 
BRANCH  14  15
HETATM   15  N   UNK N   1      94.361  12.422  37.975  0.00  0.00    -0.257 NA
HETATM   16  H   UNK N   1      94.566  12.592  38.962  0.00  0.00     0.141 HD
BRANCH  15  17
HETATM   17  N   UNK N   1      94.256  11.003  37.689  0.00  0.00    -0.265 NA
HETATM   18  C   UNK N   1      94.338  10.263  38.943  0.00  0.00     0.126 C 
HETATM   19  H   UNK N   1      93.392  10.760  37.197  0.00  0.00     0.140 HD
ENDBRANCH  15  17
ENDBRANCH  14  15
ENDBRANCH   6  14
TORSDOF 5
ENDMDL
MODEL 3
REMARK VINA RESULT:      -6.5      1.523      2.358
REMARK  5 active torsions:
REMARK  status: ('A' for Active; 'I' for Inactive)
REMARK       I    between atoms: C_2  and  N_3 
REMARK    1  A    between atoms: C_2  and  C_4 
REMARK    2  A    between atoms: N_3  and  C_5 
REMARK    3  A    between atoms: C_12  and  C_13 
REMARK    4  A    between atoms: C_13  and  N_14 
REMARK    5  A    between atoms: N_14  and  N_15 
ROOT
HETATM    1  C   UNK N   1      82.141  32.228  44.163  0.00  0.00     0.032 A 
HETATM    2  C   UNK N   1      81.899  30.930  44.628  0.00  0.00     0.017 A 
HETATM    3  C   UNK N   1      83.094  32.433  43.159  0.00  0.00     0.017 A 
HETATM    4  C   UNK N   1      82.588  29.848  44.071  0.00  0.00     0.009 A 
HETATM    5  C   UNK N   1      83.783  31.350  42.606  0.00  0.00     0.009 A 
HETATM    6  C   UNK N   1      83.539  30.046  43.057  0.00  0.00    -0.044 A 
ENDROOT
BRANCH   1   7
HETATM    7  C   UNK N   1      81.436  33.416  44.720  0.00  0.00     0.251 C 
HETATM    8  O   UNK N   1      80.882  33.348  45.812  0.00  0.00    -0.268 OA
HETATM    9  N   UNK N   1      81.477  34.568  43.961  0.00  0.00    -0.353 N 
HETATM   10  H   UNK N   1      81.995  34.580  43.095  0.00  0.00     0.163 HD
BRANCH   9  11
HETATM   11  C   UNK N   1      80.786  35.783  44.369  0.00  0.00     0.076 C 
HETATM   12  C   UNK N   1      81.731  36.979  44.285  0.00  0.00     0.032 C 
HETATM   13  C   UNK N   1      79.549  36.007  43.504  0.00  0.00     0.032 C 
ENDBRANCH   9  11
ENDBRANCH   1   7
BRANCH   6  14
HETATM   14  C   UNK N   1      84.264  28.873  42.433  0.00  0.00     0.143 C 
BRANCH  14  15
HETATM   15  N   UNK N   1      85.469  29.244  41.669  0.00  0.00    -0.257 NA
HETATM   16  H   UNK N   1      86.294  28.958  42.202  0.00  0.00     0.141 HD
BRANCH  15  17
HETATM   17  N   UNK N   1      85.436  28.619  40.360  0.00  0.00    -0.265 NA
HETATM   18  C   UNK N   1      84.549  29.386  39.494  0.00  0.00     0.126 C 
HETATM   19  H   UNK N   1      86.363  28.546  39.932  0.00  0.00     0.140 HD
ENDBRANCH  15  17
ENDBRANCH  14  15
ENDBRANCH   6  14
TORSDOF 5
ENDMDL
MODEL 4
REMARK VINA RESULT:      -6.5      1.641      2.364
REMARK  5 active torsions:
REMARK  status: ('A' for Active; 'I' for Inactive)
REMARK       I    between atoms: C_2  and  N_3 
REMARK    1  A    between atoms: C_2  and  C_4 
REMARK    2  A    between atoms: N_3  and  C_5 
REMARK    3  A    between atoms: C_12  and  C_13 
REMARK    4  A    between atoms: C_13  and  N_14 
REMARK    5  A    between atoms: N_14  and  N_15 
ROOT
HETATM    1  C   UNK N   1      83.478  31.076  43.103  0.00  0.00     0.032 A 
HETATM    2  C   UNK N   1      83.946  31.693  41.937  0.00  0.00     0.017 A 
HETATM    3  C   UNK N   1      83.477  29.680  43.191  0.00  0.00     0.017 A 
HETATM    4  C   UNK N   1      84.433  30.915  40.882  0.00  0.00     0.009 A 
HETATM    5  C   UNK N   1      83.961  28.905  42.133  0.00  0.00     0.009 A 
HETATM    6  C   UNK N   1      84.443  29.514  40.966  0.00  0.00    -0.044 A 
ENDROOT
BRANCH   1   7
HETATM    7  C   UNK N   1      82.950  31.856  44.258  0.00  0.00     0.251 C 
HETATM    8  O   UNK N   1      82.120  32.740  44.075  0.00  0.00    -0.268 OA
HETATM    9  N   UNK N   1      83.420  31.502  45.506  0.00  0.00    -0.353 N 
HETATM   10  H   UNK N   1      84.062  30.729  45.600  0.00  0.00     0.163 HD
BRANCH   9  11
HETATM   11  C   UNK N   1      83.020  32.217  46.709  0.00  0.00     0.076 C 
HETATM   12  C   UNK N   1      82.103  31.343  47.560  0.00  0.00     0.032 C 
HETATM   13  C   UNK N   1      84.249  32.649  47.504  0.00  0.00     0.032 C 
ENDBRANCH   9  11
ENDBRANCH   1   7
BRANCH   6  14
HETATM   14  C   UNK N   1      84.996  28.672  39.836  0.00  0.00     0.143 C 
BRANCH  14  15
HETATM   15  N   UNK N   1      85.180  27.250  40.176  0.00  0.00    -0.257 NA
HETATM   16  H   UNK N   1      84.686  27.057  41.051  0.00  0.00     0.141 HD
BRANCH  15  17
HETATM   17  N   UNK N   1      84.693  26.415  39.094  0.00  0.00    -0.265 NA
HETATM   18  C   UNK N   1      83.645  27.135  38.378  0.00  0.00     0.126 C 
HETATM   19  H   UNK N   1      85.432  26.138  38.442  0.00  0.00     0.140 HD
ENDBRANCH  15  17
ENDBRANCH  14  15
ENDBRANCH   6  14
TORSDOF 5
ENDMDL
MODEL 5
REMARK VINA RESULT:      -6.1      8.435     10.577
REMARK  5 active torsions:
REMARK  status: ('A' for Active; 'I' for Inactive)
REMARK       I    between atoms: C_2  and  N_3 
REMARK    1  A    between atoms: C_2  and  C_4 
REMARK    2  A    between atoms: N_3  and  C_5 
REMARK    3  A    between atoms: C_12  and  C_13 
REMARK    4  A    between atoms: C_13  and  N_14 
REMARK    5  A    between atoms: N_14  and  N_15 
ROOT
HETATM    1  C   UNK N   1      82.005  21.647  44.464  0.00  0.00     0.032 A 
HETATM    2  C   UNK N   1      81.597  21.014  43.285  0.00  0.00     0.017 A 
HETATM    3  C   UNK N   1      81.510  22.919  44.770  0.00  0.00     0.017 A 
HETATM    4  C   UNK N   1      80.679  21.641  42.437  0.00  0.00     0.009 A 
HETATM    5  C   UNK N   1      80.594  23.545  43.919  0.00  0.00     0.009 A 
HETATM    6  C   UNK N   1      80.170  22.913  42.742  0.00  0.00    -0.044 A 
ENDROOT
BRANCH   1   7
HETATM    7  C   UNK N   1      82.980  21.025  45.404  0.00  0.00     0.251 C 
HETATM    8  O   UNK N   1      83.866  21.705  45.911  0.00  0.00    -0.268 OA
HETATM    9  N   UNK N   1      82.799  19.685  45.681  0.00  0.00    -0.353 N 
HETATM   10  H   UNK N   1      82.018  19.190  45.276  0.00  0.00     0.163 HD
BRANCH   9  11
HETATM   11  C   UNK N   1      83.711  18.949  46.544  0.00  0.00     0.076 C 
HETATM   12  C   UNK N   1      83.175  18.922  47.973  0.00  0.00     0.032 C 
HETATM   13  C   UNK N   1      83.917  17.532  46.015  0.00  0.00     0.032 C 
ENDBRANCH   9  11
ENDBRANCH   1   7
BRANCH   6  14
HETATM   14  C   UNK N   1      79.155  23.581  41.839  0.00  0.00     0.143 C 
BRANCH  14  15
HETATM   15  N   UNK N   1      79.527  24.942  41.413  0.00  0.00    -0.257 NA
HETATM   16  H   UNK N   1      80.277  25.280  42.020  0.00  0.00     0.141 HD
BRANCH  15  17
HETATM   17  N   UNK N   1      79.930  24.932  40.019  0.00  0.00    -0.265 NA
HETATM   18  C   UNK N   1      79.118  23.956  39.301  0.00  0.00     0.126 C 
HETATM   19  H   UNK N   1      79.846  25.849  39.575  0.00  0.00     0.140 HD
ENDBRANCH  15  17
ENDBRANCH  14  15
ENDBRANCH   6  14
TORSDOF 5
ENDMDL
MODEL 6
REMARK VINA RESULT:      -6.0      8.862     10.749
REMARK  5 active torsions:
REMARK  status: ('A' for Active; 'I' for Inactive)
REMARK       I    between atoms: C_2  and  N_3 
REMARK    1  A    between atoms: C_2  and  C_4 
REMARK    2  A    between atoms: N_3  and  C_5 
REMARK    3  A    between atoms: C_12  and  C_13 
REMARK    4  A    between atoms: C_13  and  N_14 
REMARK    5  A    between atoms: N_14  and  N_15 
ROOT
HETATM    1  C   UNK N   1      81.043  20.738  43.543  0.00  0.00     0.032 A 
HETATM    2  C   UNK N   1      80.408  21.985  43.525  0.00  0.00     0.017 A 
HETATM    3  C   UNK N   1      81.406  20.133  42.335  0.00  0.00     0.017 A 
HETATM    4  C   UNK N   1      80.166  22.629  42.307  0.00  0.00     0.009 A 
HETATM    5  C   UNK N   1      81.160  20.777  41.119  0.00  0.00     0.009 A 
HETATM    6  C   UNK N   1      80.535  22.032  41.092  0.00  0.00    -0.044 A 
ENDROOT
BRANCH   1   7
HETATM    7  C   UNK N   1      81.327  20.009  44.810  0.00  0.00     0.251 C 
HETATM    8  O   UNK N   1      80.430  19.402  45.385  0.00  0.00    -0.268 OA
HETATM    9  N   UNK N   1      82.633  20.035  45.257  0.00  0.00    -0.353 N 
HETATM   10  H   UNK N   1      83.340  20.505  44.712  0.00  0.00     0.163 HD
BRANCH   9  11
HETATM   11  C   UNK N   1      83.030  19.403  46.507  0.00  0.00     0.076 C 
HETATM   12  C   UNK N   1      83.776  18.102  46.224  0.00  0.00     0.032 C 
HETATM   13  C   UNK N   1      83.892  20.354  47.332  0.00  0.00     0.032 C 
ENDBRANCH   9  11
ENDBRANCH   1   7
BRANCH   6  14
HETATM   14  C   UNK N   1      80.299  22.740  39.775  0.00  0.00     0.143 C 
BRANCH  14  15
HETATM   15  N   UNK N   1      80.242  24.209  39.881  0.00  0.00    -0.257 NA
HETATM   16  H   UNK N   1      80.496  24.478  40.834  0.00  0.00     0.141 HD
BRANCH  15  17
HETATM   17  N   UNK N   1      81.129  24.811  38.903  0.00  0.00    -0.265 NA
HETATM   18  C   UNK N   1      81.663  23.761  38.042  0.00  0.00     0.126 C 
HETATM   19  H   UNK N   1      80.667  25.525  38.334  0.00  0.00     0.140 HD
ENDBRANCH  15  17
ENDBRANCH  14  15
ENDBRANCH   6  14
TORSDOF 5
ENDMDL
MODEL 7
REMARK VINA RESULT:      -6.0      8.296     10.579
REMARK  5 active torsions:
REMARK  status: ('A' for Active; 'I' for Inactive)
REMARK       I    between atoms: C_2  and  N_3 
REMARK    1  A    between atoms: C_2  and  C_4 
REMARK    2  A    between atoms: N_3  and  C_5 
REMARK    3  A    between atoms: C_12  and  C_13 
REMARK    4  A    between atoms: C_13  and  N_14 
REMARK    5  A    between atoms: N_14  and  N_15 
ROOT
HETATM    1  C   UNK N   1      81.102  21.028  43.698  0.00  0.00     0.032 A 
HETATM    2  C   UNK N   1      81.453  20.356  42.522  0.00  0.00     0.017 A 
HETATM    3  C   UNK N   1      80.464  22.270  43.618  0.00  0.00     0.017 A 
HETATM    4  C   UNK N   1      81.140  20.915  41.279  0.00  0.00     0.009 A 
HETATM    5  C   UNK N   1      80.155  22.827  42.374  0.00  0.00     0.009 A 
HETATM    6  C   UNK N   1      80.492  22.156  41.190  0.00  0.00    -0.044 A 
ENDROOT
BRANCH   1   7
HETATM    7  C   UNK N   1      81.409  20.479  45.049  0.00  0.00     0.251 C 
HETATM    8  O   UNK N   1      80.629  20.658  45.978  0.00  0.00    -0.268 OA
HETATM    9  N   UNK N   1      82.577  19.753  45.168  0.00  0.00    -0.353 N 
HETATM   10  H   UNK N   1      83.153  19.593  44.355  0.00  0.00     0.163 HD
BRANCH   9  11
HETATM   11  C   UNK N   1      83.015  19.206  46.444  0.00  0.00     0.076 C 
HETATM   12  C   UNK N   1      83.812  17.924  46.221  0.00  0.00     0.032 C 
HETATM   13  C   UNK N   1      83.846  20.235  47.207  0.00  0.00     0.032 C 
ENDBRANCH   9  11
ENDBRANCH   1   7
BRANCH   6  14
HETATM   14  C   UNK N   1      80.127  22.748  39.845  0.00  0.00     0.143 C 
BRANCH  14  15
HETATM   15  N   UNK N   1      80.277  24.213  39.769  0.00  0.00    -0.257 NA
HETATM   16  H   UNK N   1      80.504  24.567  40.701  0.00  0.00     0.141 HD
BRANCH  15  17
HETATM   17  N   UNK N   1      81.304  24.556  38.803  0.00  0.00    -0.265 NA
HETATM   18  C   UNK N   1      80.913  25.782  38.116  0.00  0.00     0.126 C 
HETATM   19  H   UNK N   1      82.226  24.675  39.229  0.00  0.00     0.140 HD
ENDBRANCH  15  17
ENDBRANCH  14  15
ENDBRANCH   6  14
TORSDOF 5
ENDMDL
MODEL 8
REMARK VINA RESULT:      -5.9     14.839     16.987
REMARK  5 active torsions:
REMARK  status: ('A' for Active; 'I' for Inactive)
REMARK       I    between atoms: C_2  and  N_3 
REMARK    1  A    between atoms: C_2  and  C_4 
REMARK    2  A    between atoms: N_3  and  C_5 
REMARK    3  A    between atoms: C_12  and  C_13 
REMARK    4  A    between atoms: C_13  and  N_14 
REMARK    5  A    between atoms: N_14  and  N_15 
ROOT
HETATM    1  C   UNK N   1      88.687  14.715  44.518  0.00  0.00     0.032 A 
HETATM    2  C   UNK N   1      88.827  15.551  43.405  0.00  0.00     0.017 A 
HETATM    3  C   UNK N   1      89.802  14.435  45.315  0.00  0.00     0.017 A 
HETATM    4  C   UNK N   1      90.070  16.123  43.113  0.00  0.00     0.009 A 
HETATM    5  C   UNK N   1      91.043  15.004  45.019  0.00  0.00     0.009 A 
HETATM    6  C   UNK N   1      91.192  15.853  43.913  0.00  0.00    -0.044 A 
ENDROOT
BRANCH   1   7
HETATM    7  C   UNK N   1      87.387  14.080  44.876  0.00  0.00     0.251 C 
HETATM    8  O   UNK N   1      87.356  13.148  45.673  0.00  0.00    -0.268 OA
HETATM    9  N   UNK N   1      86.257  14.619  44.294  0.00  0.00    -0.353 N 
HETATM   10  H   UNK N   1      86.339  15.422  43.688  0.00  0.00     0.163 HD
BRANCH   9  11
HETATM   11  C   UNK N   1      84.933  14.060  44.524  0.00  0.00     0.076 C 
HETATM   12  C   UNK N   1      83.868  15.139  44.348  0.00  0.00     0.032 C 
HETATM   13  C   UNK N   1      84.680  12.888  43.579  0.00  0.00     0.032 C 
ENDBRANCH   9  11
ENDBRANCH   1   7
BRANCH   6  14
HETATM   14  C   UNK N   1      92.530  16.494  43.615  0.00  0.00     0.143 C 
BRANCH  14  15
HETATM   15  N   UNK N   1      92.822  17.690  44.425  0.00  0.00    -0.257 NA
HETATM   16  H   UNK N   1      93.781  17.621  44.775  0.00  0.00     0.141 HD
BRANCH  15  17
HETATM   17  N   UNK N   1      92.630  18.887  43.628  0.00  0.00    -0.265 NA
HETATM   18  C   UNK N   1      91.343  19.481  43.974  0.00  0.00     0.126 C 
HETATM   19  H   UNK N   1      93.376  19.575  43.758  0.00  0.00     0.140 HD
ENDBRANCH  15  17
ENDBRANCH  14  15
ENDBRANCH   6  14
TORSDOF 5
ENDMDL
MODEL 9
REMARK VINA RESULT:      -5.9     29.021     31.696
REMARK  5 active torsions:
REMARK  status: ('A' for Active; 'I' for Inactive)
REMARK       I    between atoms: C_2  and  N_3 
REMARK    1  A    between atoms: C_2  and  C_4 
REMARK    2  A    between atoms: N_3  and  C_5 
REMARK    3  A    between atoms: C_12  and  C_13 
REMARK    4  A    between atoms: C_13  and  N_14 
REMARK    5  A    between atoms: N_14  and  N_15 
ROOT
HETATM    1  C   UNK N   1      85.992  37.038  12.056  0.00  0.00     0.032 A 
HETATM    2  C   UNK N   1      85.212  36.194  12.854  0.00  0.00     0.017 A 
HETATM    3  C   UNK N   1      85.517  38.315  11.734  0.00  0.00     0.017 A 
HETATM    4  C   UNK N   1      83.982  36.639  13.348  0.00  0.00     0.009 A 
HETATM    5  C   UNK N   1      84.285  38.755  12.226  0.00  0.00     0.009 A 
HETATM    6  C   UNK N   1      83.503  37.921  13.037  0.00  0.00    -0.044 A 
ENDROOT
BRANCH   1   7
HETATM    7  C   UNK N   1      87.311  36.617  11.505  0.00  0.00     0.251 C 
HETATM    8  O   UNK N   1      88.348  36.963  12.060  0.00  0.00    -0.268 OA
HETATM    9  N   UNK N   1      87.281  35.812  10.385  0.00  0.00    -0.353 N 
HETATM   10  H   UNK N   1      86.395  35.514  10.004  0.00  0.00     0.163 HD
BRANCH   9  11
HETATM   11  C   UNK N   1      88.501  35.373   9.721  0.00  0.00     0.076 C 
HETATM   12  C   UNK N   1      88.268  34.036   9.024  0.00  0.00     0.032 C 
HETATM   13  C   UNK N   1      88.974  36.429   8.726  0.00  0.00     0.032 C 
ENDBRANCH   9  11
ENDBRANCH   1   7
BRANCH   6  14
HETATM   14  C   UNK N   1      82.184  38.414  13.594  0.00  0.00     0.143 C 
BRANCH  14  15
HETATM   15  N   UNK N   1      81.536  37.479  14.531  0.00  0.00    -0.257 NA
HETATM   16  H   UNK N   1      82.262  36.937  15.005  0.00  0.00     0.141 HD
BRANCH  15  17
HETATM   17  N   UNK N   1      80.716  38.213  15.476  0.00  0.00    -0.265 NA
HETATM   18  C   UNK N   1      80.947  39.642  15.289  0.00  0.00     0.126 C 
HETATM   19  H   UNK N   1      79.718  38.007  15.380  0.00  0.00     0.140 HD
ENDBRANCH  15  17
ENDBRANCH  14  15
ENDBRANCH   6  14
TORSDOF 5
ENDMDL
