MODEL 1
REMARK VINA RESULT:      -7.3      0.000      0.000
REMARK  8 active torsions:
REMARK  status: ('A' for Active; 'I' for Inactive)
REMARK    1  A    between atoms: S_1  and  C_3 
REMARK    2  A    between atoms: S_1  and  C_4 
REMARK    3  A    between atoms: C_4  and  C_8 
REMARK    4  A    between atoms: C_17  and  O_22 
REMARK    5  A    between atoms: O_22  and  C_23 
REMARK    6  A    between atoms: C_23  and  C_24 
REMARK    7  A    between atoms: C_24  and  C_25 
REMARK    8  A    between atoms: C_25  and  O_26 
ROOT
HETATM    1  C   UNK N   1      88.286  14.557  42.734  0.00  0.00     0.029 A 
HETATM    2  N   UNK N   1      87.323  13.726  42.255  0.00  0.00    -0.368 N 
ATOM      3  HN  UNK N   1      86.508  13.493  42.822  1.00  0.00     0.165 HD
HETATM    4  C   UNK N   1      89.397  14.921  41.958  0.00  0.00    -0.005 A 
HETATM    5  C   UNK N   1      87.464  13.214  41.018  0.00  0.00     0.091 A 
HETATM    6  C   UNK N   1      89.525  14.335  40.682  0.00  0.00     0.077 A 
HETATM    7  C   UNK N   1      90.440  15.916  42.392  0.00  0.00     0.053 C 
HETATM    8  C   UNK N   1      88.540  13.482  40.200  0.00  0.00     0.054 A 
ENDROOT
BRANCH   1   9
HETATM    9  C   UNK N   1      88.051  15.026  44.149  0.00  0.00     0.175 C 
BRANCH   9  10
HETATM   10  S   UNK N   1      86.877  14.013  45.114  0.00  0.00     0.090 S 
HETATM   11  O   UNK N   1      87.267  14.019  46.565  0.00  0.00    -0.249 OA
BRANCH  10  12
HETATM   12  C   UNK N   1      85.447  15.091  44.991  0.00  0.00     0.176 A 
HETATM   13  N   UNK N   1      84.596  15.102  43.990  0.00  0.00    -0.333 N 
HETATM   14  C   UNK N   1      83.686  16.083  44.311  0.00  0.00     0.061 A 
ATOM     15  HN  UNK N   1      84.606  14.512  43.157  1.00  0.00     0.168 HD
HETATM   16  C   UNK N   1      82.565  16.533  43.598  0.00  0.00     0.032 A 
HETATM   17  C   UNK N   1      84.004  16.683  45.526  0.00  0.00     0.061 A 
HETATM   18  C   UNK N   1      81.808  17.583  44.131  0.00  0.00     0.002 A 
HETATM   19  C   UNK N   1      82.160  18.173  45.348  0.00  0.00     0.002 A 
HETATM   20  C   UNK N   1      83.271  17.734  46.076  0.00  0.00     0.032 A 
HETATM   21  N   UNK N   1      85.121  16.013  45.949  0.00  0.00    -0.333 N 
HETATM   22  H   UNK N   1      85.652  16.171  46.794  0.00  0.00     0.168 HD
ENDBRANCH  10  12
ENDBRANCH   9  10
ENDBRANCH   1   9
BRANCH   6  23
HETATM   23  O   UNK N   1      90.644  14.681  39.968  0.00  0.00    -0.350 OA
BRANCH  23  24
HETATM   24  C   UNK N   1      90.837  14.024  38.712  0.00  0.00     0.178 C 
BRANCH  24  25
HETATM   25  C   UNK N   1      92.307  14.162  38.320  0.00  0.00     0.053 C 
BRANCH  25  26
HETATM   26  C   UNK N   1      92.789  12.966  37.498  0.00  0.00     0.169 C 
BRANCH  26  27
HETATM   27  O   UNK N   1      94.114  12.581  37.868  0.00  0.00    -0.396 OA
HETATM   28  C   UNK N   1      94.143  11.512  38.804  0.00  0.00     0.201 C 
ENDBRANCH  26  27
ENDBRANCH  25  26
ENDBRANCH  24  25
ENDBRANCH  23  24
ENDBRANCH   6  23
TORSDOF 8
ENDMDL
MODEL 2
REMARK VINA RESULT:      -7.0      4.511      5.934
REMARK  8 active torsions:
REMARK  status: ('A' for Active; 'I' for Inactive)
REMARK    1  A    between atoms: S_1  and  C_3 
REMARK    2  A    between atoms: S_1  and  C_4 
REMARK    3  A    between atoms: C_4  and  C_8 
REMARK    4  A    between atoms: C_17  and  O_22 
REMARK    5  A    between atoms: O_22  and  C_23 
REMARK    6  A    between atoms: C_23  and  C_24 
REMARK    7  A    between atoms: C_24  and  C_25 
REMARK    8  A    between atoms: C_25  and  O_26 
ROOT
HETATM    1  C   UNK N   1      89.446  12.956  38.552  0.00  0.00     0.029 A 
HETATM    2  N   UNK N   1      89.023  11.702  38.244  0.00  0.00    -0.368 N 
ATOM      3  HN  UNK N   1      88.062  11.417  38.431  1.00  0.00     0.165 HD
HETATM    4  C   UNK N   1      90.754  13.382  38.271  0.00  0.00    -0.005 A 
HETATM    5  C   UNK N   1      89.896  10.840  37.689  0.00  0.00     0.091 A 
HETATM    6  C   UNK N   1      91.645  12.438  37.723  0.00  0.00     0.077 A 
HETATM    7  C   UNK N   1      91.250  14.786  38.493  0.00  0.00     0.053 C 
HETATM    8  C   UNK N   1      91.208  11.156  37.415  0.00  0.00     0.054 A 
ENDROOT
BRANCH   1   9
HETATM    9  C   UNK N   1      88.401  13.816  39.220  0.00  0.00     0.175 C 
BRANCH   9  10
HETATM   10  S   UNK N   1      87.952  13.310  40.917  0.00  0.00     0.090 S 
HETATM   11  O   UNK N   1      88.338  11.876  41.142  0.00  0.00    -0.249 OA
BRANCH  10  12
HETATM   12  C   UNK N   1      89.170  14.286  41.806  0.00  0.00     0.176 A 
HETATM   13  N   UNK N   1      88.929  15.435  42.396  0.00  0.00    -0.333 N 
HETATM   14  C   UNK N   1      90.139  15.820  42.926  0.00  0.00     0.061 A 
ATOM     15  HN  UNK N   1      88.040  15.933  42.451  1.00  0.00     0.168 HD
HETATM   16  C   UNK N   1      90.472  16.972  43.654  0.00  0.00     0.032 A 
HETATM   17  C   UNK N   1      91.132  14.888  42.637  0.00  0.00     0.061 A 
HETATM   18  C   UNK N   1      91.801  17.149  44.058  0.00  0.00     0.002 A 
HETATM   19  C   UNK N   1      92.778  16.200  43.742  0.00  0.00     0.002 A 
HETATM   20  C   UNK N   1      92.463  15.043  43.022  0.00  0.00     0.032 A 
HETATM   21  N   UNK N   1      90.478  13.907  41.940  0.00  0.00    -0.333 N 
HETATM   22  H   UNK N   1      90.871  13.061  41.551  0.00  0.00     0.168 HD
ENDBRANCH  10  12
ENDBRANCH   9  10
ENDBRANCH   1   9
BRANCH   6  23
HETATM   23  O   UNK N   1      92.926  12.877  37.500  0.00  0.00    -0.350 OA
BRANCH  23  24
HETATM   24  C   UNK N   1      93.811  12.880  38.624  0.00  0.00     0.178 C 
BRANCH  24  25
HETATM   25  C   UNK N   1      94.705  11.644  38.535  0.00  0.00     0.053 C 
BRANCH  25  26
HETATM   26  C   UNK N   1      95.947  11.778  39.417  0.00  0.00     0.169 C 
BRANCH  26  27
HETATM   27  O   UNK N   1      95.856  12.920  40.271  0.00  0.00    -0.396 OA
HETATM   28  C   UNK N   1      97.072  13.651  40.353  0.00  0.00     0.201 C 
ENDBRANCH  26  27
ENDBRANCH  25  26
ENDBRANCH  24  25
ENDBRANCH  23  24
ENDBRANCH   6  23
TORSDOF 8
ENDMDL
MODEL 3
REMARK VINA RESULT:      -7.0      4.707      7.292
REMARK  8 active torsions:
REMARK  status: ('A' for Active; 'I' for Inactive)
REMARK    1  A    between atoms: S_1  and  C_3 
REMARK    2  A    between atoms: S_1  and  C_4 
REMARK    3  A    between atoms: C_4  and  C_8 
REMARK    4  A    between atoms: C_17  and  O_22 
REMARK    5  A    between atoms: O_22  and  C_23 
REMARK    6  A    between atoms: C_23  and  C_24 
REMARK    7  A    between atoms: C_24  and  C_25 
REMARK    8  A    between atoms: C_25  and  O_26 
ROOT
HETATM    1  C   UNK N   1      84.086  17.055  46.871  0.00  0.00     0.029 A 
HETATM    2  N   UNK N   1      84.191  17.342  48.196  0.00  0.00    -0.368 N 
ATOM      3  HN  UNK N   1      83.837  18.224  48.566  1.00  0.00     0.165 HD
HETATM    4  C   UNK N   1      84.532  15.832  46.345  0.00  0.00    -0.005 A 
HETATM    5  C   UNK N   1      84.771  16.441  49.011  0.00  0.00     0.091 A 
HETATM    6  C   UNK N   1      85.165  14.933  47.227  0.00  0.00     0.077 A 
HETATM    7  C   UNK N   1      84.350  15.415  44.910  0.00  0.00     0.053 C 
HETATM    8  C   UNK N   1      85.273  15.234  48.578  0.00  0.00     0.054 A 
ENDROOT
BRANCH   1   9
HETATM    9  C   UNK N   1      83.471  18.158  46.045  0.00  0.00     0.175 C 
BRANCH   9  10
HETATM   10  S   UNK N   1      83.002  19.655  46.981  0.00  0.00     0.090 S 
HETATM   11  O   UNK N   1      84.232  20.437  47.346  0.00  0.00    -0.249 OA
BRANCH  10  12
HETATM   12  C   UNK N   1      82.228  20.565  45.640  0.00  0.00     0.176 A 
HETATM   13  N   UNK N   1      81.683  21.756  45.754  0.00  0.00    -0.333 N 
HETATM   14  C   UNK N   1      81.208  22.047  44.496  0.00  0.00     0.061 A 
ATOM     15  HN  UNK N   1      81.626  22.337  46.591  1.00  0.00     0.168 HD
HETATM   16  C   UNK N   1      80.527  23.184  44.038  0.00  0.00     0.032 A 
HETATM   17  C   UNK N   1      81.462  21.004  43.610  0.00  0.00     0.061 A 
HETATM   18  C   UNK N   1      80.114  23.226  42.700  0.00  0.00     0.002 A 
HETATM   19  C   UNK N   1      80.374  22.157  41.838  0.00  0.00     0.002 A 
HETATM   20  C   UNK N   1      81.058  21.018  42.276  0.00  0.00     0.032 A 
HETATM   21  N   UNK N   1      82.136  20.080  44.364  0.00  0.00    -0.333 N 
HETATM   22  H   UNK N   1      82.483  19.178  44.068  0.00  0.00     0.168 HD
ENDBRANCH  10  12
ENDBRANCH   9  10
ENDBRANCH   1   9
BRANCH   6  23
HETATM   23  O   UNK N   1      85.626  13.767  46.670  0.00  0.00    -0.350 OA
BRANCH  23  24
HETATM   24  C   UNK N   1      87.045  13.613  46.578  0.00  0.00     0.178 C 
BRANCH  24  25
HETATM   25  C   UNK N   1      87.408  13.381  45.111  0.00  0.00     0.053 C 
BRANCH  25  26
HETATM   26  C   UNK N   1      87.984  14.641  44.465  0.00  0.00     0.169 C 
BRANCH  26  27
HETATM   27  O   UNK N   1      89.120  15.121  45.186  0.00  0.00    -0.396 OA
HETATM   28  C   UNK N   1      90.321  14.438  44.853  0.00  0.00     0.201 C 
ENDBRANCH  26  27
ENDBRANCH  25  26
ENDBRANCH  24  25
ENDBRANCH  23  24
ENDBRANCH   6  23
TORSDOF 8
ENDMDL
MODEL 4
REMARK VINA RESULT:      -6.9      4.799      9.225
REMARK  8 active torsions:
REMARK  status: ('A' for Active; 'I' for Inactive)
REMARK    1  A    between atoms: S_1  and  C_3 
REMARK    2  A    between atoms: S_1  and  C_4 
REMARK    3  A    between atoms: C_4  and  C_8 
REMARK    4  A    between atoms: C_17  and  O_22 
REMARK    5  A    between atoms: O_22  and  C_23 
REMARK    6  A    between atoms: C_23  and  C_24 
REMARK    7  A    between atoms: C_24  and  C_25 
REMARK    8  A    between atoms: C_25  and  O_26 
ROOT
HETATM    1  C   UNK N   1      88.979  13.292  39.362  0.00  0.00     0.029 A 
HETATM    2  N   UNK N   1      87.865  12.524  39.495  0.00  0.00    -0.368 N 
ATOM      3  HN  UNK N   1      87.566  11.908  38.740  1.00  0.00     0.165 HD
HETATM    4  C   UNK N   1      89.431  14.120  40.402  0.00  0.00    -0.005 A 
HETATM    5  C   UNK N   1      87.164  12.591  40.642  0.00  0.00     0.091 A 
HETATM    6  C   UNK N   1      88.648  14.188  41.572  0.00  0.00     0.077 A 
HETATM    7  C   UNK N   1      90.710  14.912  40.354  0.00  0.00     0.053 C 
HETATM    8  C   UNK N   1      87.508  13.403  41.700  0.00  0.00     0.054 A 
ENDROOT
BRANCH   1   9
HETATM    9  C   UNK N   1      89.653  13.178  38.016  0.00  0.00     0.175 C 
BRANCH   9  10
HETATM   10  S   UNK N   1      90.562  11.619  37.737  0.00  0.00     0.090 S 
HETATM   11  O   UNK N   1      90.343  10.684  38.892  0.00  0.00    -0.249 OA
BRANCH  10  12
HETATM   12  C   UNK N   1      89.559  10.975  36.394  0.00  0.00     0.176 A 
HETATM   13  N   UNK N   1      88.473  11.547  35.923  0.00  0.00    -0.333 N 
HETATM   14  C   UNK N   1      88.034  10.705  34.928  0.00  0.00     0.061 A 
ATOM     15  HN  UNK N   1      88.049  12.424  36.228  1.00  0.00     0.168 HD
HETATM   16  C   UNK N   1      86.912  10.813  34.093  0.00  0.00     0.032 A 
HETATM   17  C   UNK N   1      88.867   9.596  34.806  0.00  0.00     0.061 A 
HETATM   18  C   UNK N   1      86.662   9.791  33.169  0.00  0.00     0.002 A 
HETATM   19  C   UNK N   1      87.511   8.685  33.079  0.00  0.00     0.002 A 
HETATM   20  C   UNK N   1      88.638   8.562  33.898  0.00  0.00     0.032 A 
HETATM   21  N   UNK N   1      89.846   9.807  35.740  0.00  0.00    -0.333 N 
HETATM   22  H   UNK N   1      90.632   9.210  35.956  0.00  0.00     0.168 HD
ENDBRANCH  10  12
ENDBRANCH   9  10
ENDBRANCH   1   9
BRANCH   6  23
HETATM   23  O   UNK N   1      89.098  15.038  42.550  0.00  0.00    -0.350 OA
BRANCH  23  24
HETATM   24  C   UNK N   1      88.356  15.062  43.774  0.00  0.00     0.178 C 
BRANCH  24  25
HETATM   25  C   UNK N   1      89.280  14.608  44.903  0.00  0.00     0.053 C 
BRANCH  25  26
HETATM   26  C   UNK N   1      90.647  15.288  44.825  0.00  0.00     0.169 C 
BRANCH  26  27
HETATM   27  O   UNK N   1      90.662  16.510  45.564  0.00  0.00    -0.396 OA
HETATM   28  C   UNK N   1      91.139  17.613  44.805  0.00  0.00     0.201 C 
ENDBRANCH  26  27
ENDBRANCH  25  26
ENDBRANCH  24  25
ENDBRANCH  23  24
ENDBRANCH   6  23
TORSDOF 8
ENDMDL
MODEL 5
REMARK VINA RESULT:      -6.9      3.867      7.746
REMARK  8 active torsions:
REMARK  status: ('A' for Active; 'I' for Inactive)
REMARK    1  A    between atoms: S_1  and  C_3 
REMARK    2  A    between atoms: S_1  and  C_4 
REMARK    3  A    between atoms: C_4  and  C_8 
REMARK    4  A    between atoms: C_17  and  O_22 
REMARK    5  A    between atoms: O_22  and  C_23 
REMARK    6  A    between atoms: C_23  and  C_24 
REMARK    7  A    between atoms: C_24  and  C_25 
REMARK    8  A    between atoms: C_25  and  O_26 
ROOT
HETATM    1  C   UNK N   1      90.015  15.612  43.117  0.00  0.00     0.029 A 
HETATM    2  N   UNK N   1      89.234  15.369  44.203  0.00  0.00    -0.368 N 
ATOM      3  HN  UNK N   1      89.450  15.796  45.104  1.00  0.00     0.165 HD
HETATM    4  C   UNK N   1      89.717  15.065  41.859  0.00  0.00    -0.005 A 
HETATM    5  C   UNK N   1      88.172  14.554  44.070  0.00  0.00     0.091 A 
HETATM    6  C   UNK N   1      88.616  14.188  41.771  0.00  0.00     0.077 A 
HETATM    7  C   UNK N   1      90.480  15.379  40.600  0.00  0.00     0.053 C 
HETATM    8  C   UNK N   1      87.825  13.941  42.886  0.00  0.00     0.054 A 
ENDROOT
BRANCH   1   9
HETATM    9  C   UNK N   1      91.208  16.493  43.396  0.00  0.00     0.175 C 
BRANCH   9  10
HETATM   10  S   UNK N   1      92.526  15.717  44.393  0.00  0.00     0.090 S 
HETATM   11  O   UNK N   1      91.941  14.651  45.275  0.00  0.00    -0.249 OA
BRANCH  10  12
HETATM   12  C   UNK N   1      93.369  14.844  43.069  0.00  0.00     0.176 A 
HETATM   13  N   UNK N   1      93.051  13.644  42.636  0.00  0.00    -0.333 N 
HETATM   14  C   UNK N   1      93.962  13.375  41.642  0.00  0.00     0.061 A 
ATOM     15  HN  UNK N   1      92.293  13.044  42.964  1.00  0.00     0.168 HD
HETATM   16  C   UNK N   1      94.101  12.233  40.840  0.00  0.00     0.032 A 
HETATM   17  C   UNK N   1      94.856  14.431  41.482  0.00  0.00     0.061 A 
HETATM   18  C   UNK N   1      95.147  12.190  39.909  0.00  0.00     0.002 A 
HETATM   19  C   UNK N   1      96.035  13.262  39.780  0.00  0.00     0.002 A 
HETATM   20  C   UNK N   1      95.907  14.412  40.567  0.00  0.00     0.032 A 
HETATM   21  N   UNK N   1      94.437  15.365  42.392  0.00  0.00    -0.333 N 
HETATM   22  H   UNK N   1      94.846  16.271  42.577  0.00  0.00     0.168 HD
ENDBRANCH  10  12
ENDBRANCH   9  10
ENDBRANCH   1   9
BRANCH   6  23
HETATM   23  O   UNK N   1      88.379  13.640  40.536  0.00  0.00    -0.350 OA
BRANCH  23  24
HETATM   24  C   UNK N   1      88.594  12.231  40.404  0.00  0.00     0.178 C 
BRANCH  24  25
HETATM   25  C   UNK N   1      89.207  11.967  39.030  0.00  0.00     0.053 C 
BRANCH  25  26
HETATM   26  C   UNK N   1      90.734  12.036  39.068  0.00  0.00     0.169 C 
BRANCH  26  27
HETATM   27  O   UNK N   1      91.236  12.965  38.106  0.00  0.00    -0.396 OA
HETATM   28  C   UNK N   1      92.390  12.492  37.424  0.00  0.00     0.201 C 
ENDBRANCH  26  27
ENDBRANCH  25  26
ENDBRANCH  24  25
ENDBRANCH  23  24
ENDBRANCH   6  23
TORSDOF 8
ENDMDL
MODEL 6
REMARK VINA RESULT:      -6.9      6.719     12.837
REMARK  8 active torsions:
REMARK  status: ('A' for Active; 'I' for Inactive)
REMARK    1  A    between atoms: S_1  and  C_3 
REMARK    2  A    between atoms: S_1  and  C_4 
REMARK    3  A    between atoms: C_4  and  C_8 
REMARK    4  A    between atoms: C_17  and  O_22 
REMARK    5  A    between atoms: O_22  and  C_23 
REMARK    6  A    between atoms: C_23  and  C_24 
REMARK    7  A    between atoms: C_24  and  C_25 
REMARK    8  A    between atoms: C_25  and  O_26 
ROOT
HETATM    1  C   UNK N   1      90.351   9.913  36.144  0.00  0.00     0.029 A 
HETATM    2  N   UNK N   1      89.008   9.999  35.951  0.00  0.00    -0.368 N 
ATOM      3  HN  UNK N   1      88.515   9.296  35.401  1.00  0.00     0.165 HD
HETATM    4  C   UNK N   1      91.044  10.849  36.928  0.00  0.00    -0.005 A 
HETATM    5  C   UNK N   1      88.338  11.030  36.500  0.00  0.00     0.091 A 
HETATM    6  C   UNK N   1      90.311  11.932  37.453  0.00  0.00     0.077 A 
HETATM    7  C   UNK N   1      92.508  10.749  37.262  0.00  0.00     0.053 C 
HETATM    8  C   UNK N   1      88.940  12.017  37.250  0.00  0.00     0.054 A 
ENDROOT
BRANCH   1   9
HETATM    9  C   UNK N   1      91.004   8.750  35.437  0.00  0.00     0.175 C 
BRANCH   9  10
HETATM   10  S   UNK N   1      90.350   8.391  33.771  0.00  0.00     0.090 S 
HETATM   11  O   UNK N   1      89.599   9.583  33.247  0.00  0.00    -0.249 OA
BRANCH  10  12
HETATM   12  C   UNK N   1      91.910   8.370  32.881  0.00  0.00     0.176 A 
HETATM   13  N   UNK N   1      93.058   7.972  33.383  0.00  0.00    -0.333 N 
HETATM   14  C   UNK N   1      93.966   8.144  32.364  0.00  0.00     0.061 A 
ATOM     15  HN  UNK N   1      93.236   7.614  34.321  1.00  0.00     0.168 HD
HETATM   16  C   UNK N   1      95.345   7.891  32.342  0.00  0.00     0.032 A 
HETATM   17  C   UNK N   1      93.353   8.668  31.229  0.00  0.00     0.061 A 
HETATM   18  C   UNK N   1      96.063   8.186  31.176  0.00  0.00     0.002 A 
HETATM   19  C   UNK N   1      95.421   8.722  30.057  0.00  0.00     0.002 A 
HETATM   20  C   UNK N   1      94.045   8.976  30.058  0.00  0.00     0.032 A 
HETATM   21  N   UNK N   1      92.034   8.781  31.582  0.00  0.00    -0.333 N 
HETATM   22  H   UNK N   1      91.273   9.133  31.017  0.00  0.00     0.168 HD
ENDBRANCH  10  12
ENDBRANCH   9  10
ENDBRANCH   1   9
BRANCH   6  23
HETATM   23  O   UNK N   1      91.029  12.849  38.180  0.00  0.00    -0.350 OA
BRANCH  23  24
HETATM   24  C   UNK N   1      90.554  13.141  39.497  0.00  0.00     0.178 C 
BRANCH  24  25
HETATM   25  C   UNK N   1      90.830  14.615  39.790  0.00  0.00     0.053 C 
BRANCH  25  26
HETATM   26  C   UNK N   1      91.228  14.838  41.249  0.00  0.00     0.169 C 
BRANCH  26  27
HETATM   27  O   UNK N   1      90.367  15.786  41.883  0.00  0.00    -0.396 OA
HETATM   28  C   UNK N   1      89.153  15.211  42.349  0.00  0.00     0.201 C 
ENDBRANCH  26  27
ENDBRANCH  25  26
ENDBRANCH  24  25
ENDBRANCH  23  24
ENDBRANCH   6  23
TORSDOF 8
ENDMDL
MODEL 7
REMARK VINA RESULT:      -6.8     17.265     20.530
REMARK  8 active torsions:
REMARK  status: ('A' for Active; 'I' for Inactive)
REMARK    1  A    between atoms: S_1  and  C_3 
REMARK    2  A    between atoms: S_1  and  C_4 
REMARK    3  A    between atoms: C_4  and  C_8 
REMARK    4  A    between atoms: C_17  and  O_22 
REMARK    5  A    between atoms: O_22  and  C_23 
REMARK    6  A    between atoms: C_23  and  C_24 
REMARK    7  A    between atoms: C_24  and  C_25 
REMARK    8  A    between atoms: C_25  and  O_26 
ROOT
HETATM    1  C   UNK N   1      81.594  32.862  44.477  0.00  0.00     0.029 A 
HETATM    2  N   UNK N   1      82.539  33.214  43.565  0.00  0.00    -0.368 N 
ATOM      3  HN  UNK N   1      82.655  34.188  43.287  1.00  0.00     0.165 HD
HETATM    4  C   UNK N   1      81.441  31.533  44.903  0.00  0.00    -0.005 A 
HETATM    5  C   UNK N   1      83.320  32.254  43.035  0.00  0.00     0.091 A 
HETATM    6  C   UNK N   1      82.254  30.554  44.296  0.00  0.00     0.077 A 
HETATM    7  C   UNK N   1      80.486  31.098  45.982  0.00  0.00     0.053 C 
HETATM    8  C   UNK N   1      83.215  30.920  43.362  0.00  0.00     0.054 A 
ENDROOT
BRANCH   1   9
HETATM    9  C   UNK N   1      80.742  34.010  44.961  0.00  0.00     0.175 C 
BRANCH   9  10
HETATM   10  S   UNK N   1      79.958  35.000  43.642  0.00  0.00     0.090 S 
HETATM   11  O   UNK N   1      78.497  35.187  43.942  0.00  0.00    -0.249 OA
BRANCH  10  12
HETATM   12  C   UNK N   1      80.734  36.577  44.009  0.00  0.00     0.176 A 
HETATM   13  N   UNK N   1      80.145  37.748  43.912  0.00  0.00    -0.333 N 
HETATM   14  C   UNK N   1      81.110  38.660  44.269  0.00  0.00     0.061 A 
ATOM     15  HN  UNK N   1      79.181  37.939  43.634  1.00  0.00     0.168 HD
HETATM   16  C   UNK N   1      81.039  40.059  44.336  0.00  0.00     0.032 A 
HETATM   17  C   UNK N   1      82.311  38.025  44.576  0.00  0.00     0.061 A 
HETATM   18  C   UNK N   1      82.188  40.773  44.701  0.00  0.00     0.002 A 
HETATM   19  C   UNK N   1      83.382  40.106  44.992  0.00  0.00     0.002 A 
HETATM   20  C   UNK N   1      83.470  38.711  44.937  0.00  0.00     0.032 A 
HETATM   21  N   UNK N   1      82.033  36.692  44.423  0.00  0.00    -0.333 N 
HETATM   22  H   UNK N   1      82.664  35.913  44.551  0.00  0.00     0.168 HD
ENDBRANCH  10  12
ENDBRANCH   9  10
ENDBRANCH   1   9
BRANCH   6  23
HETATM   23  O   UNK N   1      82.048  29.261  44.707  0.00  0.00    -0.350 OA
BRANCH  23  24
HETATM   24  C   UNK N   1      83.069  28.313  44.385  0.00  0.00     0.178 C 
BRANCH  24  25
HETATM   25  C   UNK N   1      82.671  26.960  44.975  0.00  0.00     0.053 C 
BRANCH  25  26
HETATM   26  C   UNK N   1      81.153  26.785  45.015  0.00  0.00     0.169 C 
BRANCH  26  27
HETATM   27  O   UNK N   1      80.671  26.160  43.825  0.00  0.00    -0.396 OA
HETATM   28  C   UNK N   1      79.644  25.208  44.072  0.00  0.00     0.201 C 
ENDBRANCH  26  27
ENDBRANCH  25  26
ENDBRANCH  24  25
ENDBRANCH  23  24
ENDBRANCH   6  23
TORSDOF 8
ENDMDL
MODEL 8
REMARK VINA RESULT:      -6.7     28.542     31.212
REMARK  8 active torsions:
REMARK  status: ('A' for Active; 'I' for Inactive)
REMARK    1  A    between atoms: S_1  and  C_3 
REMARK    2  A    between atoms: S_1  and  C_4 
REMARK    3  A    between atoms: C_4  and  C_8 
REMARK    4  A    between atoms: C_17  and  O_22 
REMARK    5  A    between atoms: O_22  and  C_23 
REMARK    6  A    between atoms: C_23  and  C_24 
REMARK    7  A    between atoms: C_24  and  C_25 
REMARK    8  A    between atoms: C_25  and  O_26 
ROOT
HETATM    1  C   UNK N   1      77.057   6.383  17.454  0.00  0.00     0.029 A 
HETATM    2  N   UNK N   1      76.639   5.391  18.283  0.00  0.00    -0.368 N 
ATOM      3  HN  UNK N   1      77.261   5.014  18.998  1.00  0.00     0.165 HD
HETATM    4  C   UNK N   1      76.206   6.942  16.487  0.00  0.00    -0.005 A 
HETATM    5  C   UNK N   1      75.388   4.913  18.145  0.00  0.00     0.091 A 
HETATM    6  C   UNK N   1      74.917   6.388  16.352  0.00  0.00     0.077 A 
HETATM    7  C   UNK N   1      76.576   8.110  15.612  0.00  0.00     0.053 C 
HETATM    8  C   UNK N   1      74.497   5.371  17.200  0.00  0.00     0.054 A 
ENDROOT
BRANCH   1   9
HETATM    9  C   UNK N   1      78.493   6.801  17.662  0.00  0.00     0.175 C 
BRANCH   9  10
HETATM   10  S   UNK N   1      79.710   5.441  17.605  0.00  0.00     0.090 S 
HETATM   11  O   UNK N   1      78.999   4.118  17.561  0.00  0.00    -0.249 OA
BRANCH  10  12
HETATM   12  C   UNK N   1      80.325   5.716  15.940  0.00  0.00     0.176 A 
HETATM   13  N   UNK N   1      81.245   4.989  15.347  0.00  0.00    -0.333 N 
HETATM   14  C   UNK N   1      81.408   5.567  14.110  0.00  0.00     0.061 A 
ATOM     15  HN  UNK N   1      81.731   4.173  15.721  1.00  0.00     0.168 HD
HETATM   16  C   UNK N   1      82.269   5.211  13.061  0.00  0.00     0.032 A 
HETATM   17  C   UNK N   1      80.578   6.675  13.961  0.00  0.00     0.061 A 
HETATM   18  C   UNK N   1      82.270   5.992  11.899  0.00  0.00     0.002 A 
HETATM   19  C   UNK N   1      81.433   7.105  11.784  0.00  0.00     0.002 A 
HETATM   20  C   UNK N   1      80.563   7.472  12.817  0.00  0.00     0.032 A 
HETATM   21  N   UNK N   1      79.880   6.732  15.138  0.00  0.00    -0.333 N 
HETATM   22  H   UNK N   1      79.182   7.410  15.408  0.00  0.00     0.168 HD
ENDBRANCH  10  12
ENDBRANCH   9  10
ENDBRANCH   1   9
BRANCH   6  23
HETATM   23  O   UNK N   1      74.128   6.932  15.370  0.00  0.00    -0.350 OA
BRANCH  23  24
HETATM   24  C   UNK N   1      73.370   6.017  14.573  0.00  0.00     0.178 C 
BRANCH  24  25
HETATM   25  C   UNK N   1      74.287   5.455  13.487  0.00  0.00     0.053 C 
BRANCH  25  26
HETATM   26  C   UNK N   1      74.862   6.561  12.603  0.00  0.00     0.169 C 
BRANCH  26  27
HETATM   27  O   UNK N   1      76.290   6.523  12.586  0.00  0.00    -0.396 OA
HETATM   28  C   UNK N   1      76.820   6.062  11.350  0.00  0.00     0.201 C 
ENDBRANCH  26  27
ENDBRANCH  25  26
ENDBRANCH  24  25
ENDBRANCH  23  24
ENDBRANCH   6  23
TORSDOF 8
ENDMDL
MODEL 9
REMARK VINA RESULT:      -6.7     28.592     31.257
REMARK  8 active torsions:
REMARK  status: ('A' for Active; 'I' for Inactive)
REMARK    1  A    between atoms: S_1  and  C_3 
REMARK    2  A    between atoms: S_1  and  C_4 
REMARK    3  A    between atoms: C_4  and  C_8 
REMARK    4  A    between atoms: C_17  and  O_22 
REMARK    5  A    between atoms: O_22  and  C_23 
REMARK    6  A    between atoms: C_23  and  C_24 
REMARK    7  A    between atoms: C_24  and  C_25 
REMARK    8  A    between atoms: C_25  and  O_26 
ROOT
HETATM    1  C   UNK N   1      78.117   6.242  17.533  0.00  0.00     0.029 A 
HETATM    2  N   UNK N   1      77.223   5.425  18.149  0.00  0.00    -0.368 N 
ATOM      3  HN  UNK N   1      77.541   4.681  18.771  1.00  0.00     0.165 HD
HETATM    4  C   UNK N   1      77.702   7.294  16.702  0.00  0.00    -0.005 A 
HETATM    5  C   UNK N   1      75.909   5.612  17.924  0.00  0.00     0.091 A 
HETATM    6  C   UNK N   1      76.319   7.433  16.464  0.00  0.00     0.077 A 
HETATM    7  C   UNK N   1      78.636   8.294  16.076  0.00  0.00     0.053 C 
HETATM    8  C   UNK N   1      75.411   6.592  17.094  0.00  0.00     0.054 A 
ENDROOT
BRANCH   1   9
HETATM    9  C   UNK N   1      79.562   5.905  17.814  0.00  0.00     0.175 C 
BRANCH   9  10
HETATM   10  S   UNK N   1      80.184   4.409  16.971  0.00  0.00     0.090 S 
HETATM   11  O   UNK N   1      79.121   3.347  16.961  0.00  0.00    -0.249 OA
BRANCH  10  12
HETATM   12  C   UNK N   1      80.236   5.059  15.298  0.00  0.00     0.176 A 
HETATM   13  N   UNK N   1      81.211   5.790  14.805  0.00  0.00    -0.333 N 
HETATM   14  C   UNK N   1      80.822   6.071  13.515  0.00  0.00     0.061 A 
ATOM     15  HN  UNK N   1      82.068   6.085  15.274  1.00  0.00     0.168 HD
HETATM   16  C   UNK N   1      81.474   6.824  12.528  0.00  0.00     0.032 A 
HETATM   17  C   UNK N   1      79.581   5.507  13.232  0.00  0.00     0.061 A 
HETATM   18  C   UNK N   1      80.845   6.992  11.287  0.00  0.00     0.002 A 
HETATM   19  C   UNK N   1      79.593   6.423  11.037  0.00  0.00     0.002 A 
HETATM   20  C   UNK N   1      78.931   5.663  12.008  0.00  0.00     0.032 A 
HETATM   21  N   UNK N   1      79.242   4.847  14.383  0.00  0.00    -0.333 N 
HETATM   22  H   UNK N   1      78.400   4.319  14.565  0.00  0.00     0.168 HD
ENDBRANCH  10  12
ENDBRANCH   9  10
ENDBRANCH   1   9
BRANCH   6  23
HETATM   23  O   UNK N   1      75.952   8.446  15.615  0.00  0.00    -0.350 OA
BRANCH  23  24
HETATM   24  C   UNK N   1      74.913   8.155  14.675  0.00  0.00     0.178 C 
BRANCH  24  25
HETATM   25  C   UNK N   1      75.483   7.227  13.603  0.00  0.00     0.053 C 
BRANCH  25  26
HETATM   26  C   UNK N   1      74.494   6.124  13.225  0.00  0.00     0.169 C 
BRANCH  26  27
HETATM   27  O   UNK N   1      73.424   6.041  14.167  0.00  0.00    -0.396 OA
HETATM   28  C   UNK N   1      72.845   4.745  14.240  0.00  0.00     0.201 C 
ENDBRANCH  26  27
ENDBRANCH  25  26
ENDBRANCH  24  25
ENDBRANCH  23  24
ENDBRANCH   6  23
TORSDOF 8
ENDMDL
