MODEL 1
REMARK VINA RESULT:      -9.5      0.000      0.000
REMARK  6 active torsions:
REMARK  status: ('A' for Active; 'I' for Inactive)
REMARK    1  A    between atoms: C_3  and  C_6 
REMARK    2  A    between atoms: C_8  and  N_12 
REMARK       I    between atoms: N_12  and  C_13 
REMARK       I    between atoms: C_13  and  N_15 
REMARK    3  A    between atoms: N_15  and  C_16 
REMARK    4  A    between atoms: C_22  and  O_23 
REMARK    5  A    between atoms: O_23  and  C_24 
REMARK    6  A    between atoms: C_27  and  C_31 
REMARK       I    between atoms: C_31  and  N_33 
ROOT
HETATM    1  C   UNK N   1      83.808  26.361  38.108  0.00  0.00     0.075 A 
HETATM    2  C   UNK N   1      83.237  27.639  38.024  0.00  0.00     0.145 A 
HETATM    3  C   UNK N   1      84.849  26.155  39.014  0.00  0.00     0.035 A 
HETATM    4  F   UNK N   1      82.215  27.847  37.177  0.00  0.00    -0.204 F 
HETATM    5  C   UNK N   1      83.690  28.701  38.800  0.00  0.00     0.081 A 
HETATM    6  C   UNK N   1      85.316  27.217  39.799  0.00  0.00     0.040 A 
HETATM    7  C   UNK N   1      84.752  28.487  39.677  0.00  0.00     0.079 A 
ENDROOT
BRANCH   1   8
HETATM    8  N   UNK N   1      83.262  25.359  37.275  0.00  0.00    -0.306 N 
HETATM    9  C   UNK N   1      82.187  24.532  37.543  0.00  0.00     0.325 C 
HETATM   10  N   UNK N   1      81.911  23.723  36.450  0.00  0.00    -0.309 N 
HETATM   11  O   UNK N   1      81.557  24.513  38.593  0.00  0.00    -0.247 OA
HETATM   12  H   UNK N   1      82.348  23.978  35.578  0.00  0.00     0.170 HD
HETATM   13  H   UNK N   1      83.788  25.181  36.431  0.00  0.00     0.171 HD
BRANCH  10  14
HETATM   14  C   UNK N   1      80.946  22.698  36.393  0.00  0.00     0.037 A 
HETATM   15  C   UNK N   1      80.650  21.990  35.224  0.00  0.00     0.047 A 
HETATM   16  C   UNK N   1      79.662  20.983  35.208  0.00  0.00     0.071 A 
HETATM   17  C   UNK N   1      78.968  20.707  36.391  0.00  0.00     0.049 A 
HETATM   18 Cl   UNK N   1      77.743  19.494  36.478  0.00  0.00    -0.083 Cl
HETATM   19  C   UNK N   1      79.249  21.422  37.558  0.00  0.00     0.027 A 
HETATM   20  C   UNK N   1      80.230  22.416  37.557  0.00  0.00     0.031 A 
BRANCH  16  21
HETATM   21  C   UNK N   1      79.372  20.236  33.934  0.00  0.00     0.419 C 
HETATM   22  F   UNK N   1      79.597  18.895  34.028  0.00  0.00    -0.166 F 
HETATM   23  F   UNK N   1      78.077  20.357  33.530  0.00  0.00    -0.166 F 
HETATM   24  F   UNK N   1      80.140  20.654  32.889  0.00  0.00    -0.166 F 
ENDBRANCH  16  21
ENDBRANCH  10  14
ENDBRANCH   1   8
BRANCH   7  25
HETATM   25  O   UNK N   1      85.238  29.471  40.508  0.00  0.00    -0.311 OA
BRANCH  25  26
HETATM   26  C   UNK N   1      84.452  29.849  41.573  0.00  0.00     0.079 A 
HETATM   27  C   UNK N   1      83.820  28.938  42.412  0.00  0.00     0.072 A 
HETATM   28  C   UNK N   1      83.026  29.451  43.427  0.00  0.00     0.103 A 
HETATM   29  N   UNK N   1      82.820  30.784  43.638  0.00  0.00    -0.361 N 
HETATM   30  C   UNK N   1      83.432  31.630  42.782  0.00  0.00     0.091 A 
ATOM     31  HN  UNK N   1      82.235  31.122  44.401  1.00  0.00     0.165 HD
HETATM   32  C   UNK N   1      84.244  31.215  41.741  0.00  0.00     0.054 A 
BRANCH  28  33
HETATM   33  C   UNK N   1      82.332  28.515  44.372  0.00  0.00     0.267 C 
HETATM   34  O   UNK N   1      81.216  28.760  44.814  0.00  0.00    -0.266 OA
HETATM   35  N   UNK N   1      83.058  27.386  44.685  0.00  0.00    -0.360 N 
HETATM   36  C   UNK N   1      82.569  26.383  45.589  0.00  0.00     0.149 C 
HETATM   37  H   UNK N   1      83.982  27.310  44.268  0.00  0.00     0.162 HD
ENDBRANCH  28  33
ENDBRANCH  25  26
ENDBRANCH   7  25
TORSDOF 6
ENDMDL
MODEL 2
REMARK VINA RESULT:      -9.4      1.862      2.338
REMARK  6 active torsions:
REMARK  status: ('A' for Active; 'I' for Inactive)
REMARK    1  A    between atoms: C_3  and  C_6 
REMARK    2  A    between atoms: C_8  and  N_12 
REMARK       I    between atoms: N_12  and  C_13 
REMARK       I    between atoms: C_13  and  N_15 
REMARK    3  A    between atoms: N_15  and  C_16 
REMARK    4  A    between atoms: C_22  and  O_23 
REMARK    5  A    between atoms: O_23  and  C_24 
REMARK    6  A    between atoms: C_27  and  C_31 
REMARK       I    between atoms: C_31  and  N_33 
ROOT
HETATM    1  C   UNK N   1      83.864  26.137  38.137  0.00  0.00     0.075 A 
HETATM    2  C   UNK N   1      83.267  27.403  38.048  0.00  0.00     0.145 A 
HETATM    3  C   UNK N   1      84.943  25.971  39.006  0.00  0.00     0.035 A 
HETATM    4  F   UNK N   1      82.209  27.575  37.238  0.00  0.00    -0.204 F 
HETATM    5  C   UNK N   1      83.730  28.490  38.783  0.00  0.00     0.081 A 
HETATM    6  C   UNK N   1      85.421  27.058  39.749  0.00  0.00     0.040 A 
HETATM    7  C   UNK N   1      84.829  28.315  39.622  0.00  0.00     0.079 A 
ENDROOT
BRANCH   1   8
HETATM    8  N   UNK N   1      83.304  25.108  37.349  0.00  0.00    -0.306 N 
HETATM    9  C   UNK N   1      82.141  24.400  37.586  0.00  0.00     0.325 C 
HETATM   10  N   UNK N   1      81.889  23.514  36.548  0.00  0.00    -0.309 N 
HETATM   11  O   UNK N   1      81.424  24.533  38.570  0.00  0.00    -0.247 OA
HETATM   12  H   UNK N   1      82.421  23.649  35.702  0.00  0.00     0.170 HD
HETATM   13  H   UNK N   1      83.883  24.807  36.577  0.00  0.00     0.171 HD
BRANCH  10  14
HETATM   14  C   UNK N   1      80.845  22.571  36.492  0.00  0.00     0.037 A 
HETATM   15  C   UNK N   1      80.251  22.018  37.630  0.00  0.00     0.047 A 
HETATM   16  C   UNK N   1      79.219  21.061  37.527  0.00  0.00     0.071 A 
HETATM   17  C   UNK N   1      78.801  20.662  36.253  0.00  0.00     0.049 A 
HETATM   18 Cl   UNK N   1      77.546  19.501  36.017  0.00  0.00    -0.083 Cl
HETATM   19  C   UNK N   1      79.401  21.200  35.111  0.00  0.00     0.027 A 
HETATM   20  C   UNK N   1      80.422  22.146  35.231  0.00  0.00     0.031 A 
BRANCH  16  21
HETATM   21  C   UNK N   1      78.598  20.489  38.772  0.00  0.00     0.419 C 
HETATM   22  F   UNK N   1      77.250  20.683  38.845  0.00  0.00    -0.166 F 
HETATM   23  F   UNK N   1      78.775  19.144  38.886  0.00  0.00    -0.166 F 
HETATM   24  F   UNK N   1      79.099  21.040  39.914  0.00  0.00    -0.166 F 
ENDBRANCH  16  21
ENDBRANCH  10  14
ENDBRANCH   1   8
BRANCH   7  25
HETATM   25  O   UNK N   1      85.328  29.326  40.411  0.00  0.00    -0.311 OA
BRANCH  25  26
HETATM   26  C   UNK N   1      84.535  29.778  41.441  0.00  0.00     0.079 A 
HETATM   27  C   UNK N   1      83.829  28.930  42.286  0.00  0.00     0.072 A 
HETATM   28  C   UNK N   1      83.037  29.516  43.262  0.00  0.00     0.103 A 
HETATM   29  N   UNK N   1      82.902  30.864  43.430  0.00  0.00    -0.361 N 
HETATM   30  C   UNK N   1      83.586  31.649  42.570  0.00  0.00     0.091 A 
ATOM     31  HN  UNK N   1      82.316  31.257  44.166  1.00  0.00     0.165 HD
HETATM   32  C   UNK N   1      84.402  31.158  41.566  0.00  0.00     0.054 A 
BRANCH  28  33
HETATM   33  C   UNK N   1      82.264  28.649  44.212  0.00  0.00     0.267 C 
HETATM   34  O   UNK N   1      82.301  27.427  44.140  0.00  0.00    -0.266 OA
HETATM   35  N   UNK N   1      81.530  29.348  45.145  0.00  0.00    -0.360 N 
HETATM   36  C   UNK N   1      80.709  28.693  46.126  0.00  0.00     0.149 C 
HETATM   37  H   UNK N   1      81.567  30.362  45.087  0.00  0.00     0.162 HD
ENDBRANCH  28  33
ENDBRANCH  25  26
ENDBRANCH   7  25
TORSDOF 6
ENDMDL
MODEL 3
REMARK VINA RESULT:      -9.2     14.415     16.136
REMARK  6 active torsions:
REMARK  status: ('A' for Active; 'I' for Inactive)
REMARK    1  A    between atoms: C_3  and  C_6 
REMARK    2  A    between atoms: C_8  and  N_12 
REMARK       I    between atoms: N_12  and  C_13 
REMARK       I    between atoms: C_13  and  N_15 
REMARK    3  A    between atoms: N_15  and  C_16 
REMARK    4  A    between atoms: C_22  and  O_23 
REMARK    5  A    between atoms: O_23  and  C_24 
REMARK    6  A    between atoms: C_27  and  C_31 
REMARK       I    between atoms: C_31  and  N_33 
ROOT
HETATM    1  C   UNK N   1      89.811  14.611  44.967  0.00  0.00     0.075 A 
HETATM    2  C   UNK N   1      88.927  15.251  44.086  0.00  0.00     0.145 A 
HETATM    3  C   UNK N   1      89.284  13.753  45.933  0.00  0.00     0.035 A 
HETATM    4  F   UNK N   1      89.420  16.059  43.132  0.00  0.00    -0.204 F 
HETATM    5  C   UNK N   1      87.550  15.067  44.163  0.00  0.00     0.081 A 
HETATM    6  C   UNK N   1      87.899  13.562  46.021  0.00  0.00     0.040 A 
HETATM    7  C   UNK N   1      87.037  14.232  45.153  0.00  0.00     0.079 A 
ENDROOT
BRANCH   1   8
HETATM    8  N   UNK N   1      91.189  14.869  44.790  0.00  0.00    -0.306 N 
HETATM    9  C   UNK N   1      92.095  14.141  44.042  0.00  0.00     0.325 C 
HETATM   10  N   UNK N   1      93.342  14.749  44.062  0.00  0.00    -0.309 N 
HETATM   11  O   UNK N   1      91.840  13.107  43.437  0.00  0.00    -0.247 OA
HETATM   12  H   UNK N   1      93.377  15.696  44.405  0.00  0.00     0.170 HD
HETATM   13  H   UNK N   1      91.552  15.621  45.359  0.00  0.00     0.171 HD
BRANCH  10  14
HETATM   14  C   UNK N   1      94.525  14.245  43.486  0.00  0.00     0.037 A 
HETATM   15  C   UNK N   1      94.741  14.191  42.106  0.00  0.00     0.047 A 
HETATM   16  C   UNK N   1      95.935  13.661  41.571  0.00  0.00     0.071 A 
HETATM   17  C   UNK N   1      96.906  13.176  42.453  0.00  0.00     0.049 A 
HETATM   18 Cl   UNK N   1      98.400  12.510  41.902  0.00  0.00    -0.083 Cl
HETATM   19  C   UNK N   1      96.689  13.213  43.833  0.00  0.00     0.027 A 
HETATM   20  C   UNK N   1      95.502  13.741  44.346  0.00  0.00     0.031 A 
BRANCH  16  21
HETATM   21  C   UNK N   1      96.137  13.623  40.080  0.00  0.00     0.419 C 
HETATM   22  F   UNK N   1      96.341  12.366  39.592  0.00  0.00    -0.166 F 
HETATM   23  F   UNK N   1      95.072  14.111  39.386  0.00  0.00    -0.166 F 
HETATM   24  F   UNK N   1      97.221  14.342  39.674  0.00  0.00    -0.166 F 
ENDBRANCH  16  21
ENDBRANCH  10  14
ENDBRANCH   1   8
BRANCH   7  25
HETATM   25  O   UNK N   1      85.692  13.966  45.276  0.00  0.00    -0.311 OA
BRANCH  25  26
HETATM   26  C   UNK N   1      84.818  15.016  45.108  0.00  0.00     0.079 A 
HETATM   27  C   UNK N   1      84.748  16.094  45.982  0.00  0.00     0.072 A 
HETATM   28  C   UNK N   1      83.798  17.069  45.719  0.00  0.00     0.103 A 
HETATM   29  N   UNK N   1      82.926  17.023  44.669  0.00  0.00    -0.361 N 
HETATM   30  C   UNK N   1      83.013  15.945  43.862  0.00  0.00     0.091 A 
ATOM     31  HN  UNK N   1      82.246  17.765  44.504  1.00  0.00     0.165 HD
HETATM   32  C   UNK N   1      83.928  14.922  44.041  0.00  0.00     0.054 A 
BRANCH  28  33
HETATM   33  C   UNK N   1      83.688  18.263  46.620  0.00  0.00     0.267 C 
HETATM   34  O   UNK N   1      83.702  18.150  47.840  0.00  0.00    -0.266 OA
HETATM   35  N   UNK N   1      83.571  19.464  45.956  0.00  0.00    -0.360 N 
HETATM   36  C   UNK N   1      83.435  20.717  46.647  0.00  0.00     0.149 C 
HETATM   37  H   UNK N   1      83.551  19.423  44.940  0.00  0.00     0.162 HD
ENDBRANCH  28  33
ENDBRANCH  25  26
ENDBRANCH   7  25
TORSDOF 6
ENDMDL
MODEL 4
REMARK VINA RESULT:      -9.2     14.220     16.574
REMARK  6 active torsions:
REMARK  status: ('A' for Active; 'I' for Inactive)
REMARK    1  A    between atoms: C_3  and  C_6 
REMARK    2  A    between atoms: C_8  and  N_12 
REMARK       I    between atoms: N_12  and  C_13 
REMARK       I    between atoms: C_13  and  N_15 
REMARK    3  A    between atoms: N_15  and  C_16 
REMARK    4  A    between atoms: C_22  and  O_23 
REMARK    5  A    between atoms: O_23  and  C_24 
REMARK    6  A    between atoms: C_27  and  C_31 
REMARK       I    between atoms: C_31  and  N_33 
ROOT
HETATM    1  C   UNK N   1      89.015  14.204  41.660  0.00  0.00     0.075 A 
HETATM    2  C   UNK N   1      88.803  13.995  40.290  0.00  0.00     0.145 A 
HETATM    3  C   UNK N   1      90.291  14.575  42.087  0.00  0.00     0.035 A 
HETATM    4  F   UNK N   1      87.574  13.664  39.858  0.00  0.00    -0.204 F 
HETATM    5  C   UNK N   1      89.827  14.129  39.357  0.00  0.00     0.081 A 
HETATM    6  C   UNK N   1      91.330  14.711  41.158  0.00  0.00     0.040 A 
HETATM    7  C   UNK N   1      91.102  14.469  39.803  0.00  0.00     0.079 A 
ENDROOT
BRANCH   1   8
HETATM    8  N   UNK N   1      87.900  14.045  42.512  0.00  0.00    -0.306 N 
HETATM    9  C   UNK N   1      87.646  14.700  43.702  0.00  0.00     0.325 C 
HETATM   10  N   UNK N   1      86.414  14.320  44.215  0.00  0.00    -0.309 N 
HETATM   11  O   UNK N   1      88.395  15.510  44.234  0.00  0.00    -0.247 OA
HETATM   12  H   UNK N   1      85.799  13.823  43.589  0.00  0.00     0.170 HD
HETATM   13  H   UNK N   1      87.274  13.295  42.251  0.00  0.00     0.171 HD
BRANCH  10  14
HETATM   14  C   UNK N   1      85.868  14.714  45.452  0.00  0.00     0.037 A 
HETATM   15  C   UNK N   1      85.019  15.816  45.597  0.00  0.00     0.047 A 
HETATM   16  C   UNK N   1      84.508  16.186  46.859  0.00  0.00     0.071 A 
HETATM   17  C   UNK N   1      84.875  15.431  47.978  0.00  0.00     0.049 A 
HETATM   18 Cl   UNK N   1      84.305  15.798  49.565  0.00  0.00    -0.083 Cl
HETATM   19  C   UNK N   1      85.735  14.338  47.841  0.00  0.00     0.027 A 
HETATM   20  C   UNK N   1      86.232  13.985  46.585  0.00  0.00     0.031 A 
BRANCH  16  21
HETATM   21  C   UNK N   1      83.593  17.375  46.979  0.00  0.00     0.419 C 
HETATM   22  F   UNK N   1      83.512  18.114  45.837  0.00  0.00    -0.166 F 
HETATM   23  F   UNK N   1      82.310  17.030  47.278  0.00  0.00    -0.166 F 
HETATM   24  F   UNK N   1      83.989  18.252  47.944  0.00  0.00    -0.166 F 
ENDBRANCH  16  21
ENDBRANCH  10  14
ENDBRANCH   1   8
BRANCH   7  25
HETATM   25  O   UNK N   1      92.162  14.659  38.945  0.00  0.00    -0.311 OA
BRANCH  25  26
HETATM   26  C   UNK N   1      93.131  13.682  38.907  0.00  0.00     0.079 A 
HETATM   27  C   UNK N   1      94.348  13.793  39.570  0.00  0.00     0.072 A 
HETATM   28  C   UNK N   1      95.253  12.753  39.420  0.00  0.00     0.103 A 
HETATM   29  N   UNK N   1      95.025  11.645  38.655  0.00  0.00    -0.361 N 
HETATM   30  C   UNK N   1      93.841  11.593  38.009  0.00  0.00     0.091 A 
ATOM     31  HN  UNK N   1      95.713  10.896  38.577  1.00  0.00     0.165 HD
HETATM   32  C   UNK N   1      92.874  12.579  38.098  0.00  0.00     0.054 A 
BRANCH  28  33
HETATM   33  C   UNK N   1      96.576  12.811  40.124  0.00  0.00     0.267 C 
HETATM   34  O   UNK N   1      97.148  11.795  40.502  0.00  0.00    -0.266 OA
HETATM   35  N   UNK N   1      97.068  14.086  40.299  0.00  0.00    -0.360 N 
HETATM   36  C   UNK N   1      98.312  14.347  40.969  0.00  0.00     0.149 C 
HETATM   37  H   UNK N   1      96.488  14.849  39.958  0.00  0.00     0.162 HD
ENDBRANCH  28  33
ENDBRANCH  25  26
ENDBRANCH   7  25
TORSDOF 6
ENDMDL
MODEL 5
REMARK VINA RESULT:      -9.1     13.980     15.953
REMARK  6 active torsions:
REMARK  status: ('A' for Active; 'I' for Inactive)
REMARK    1  A    between atoms: C_3  and  C_6 
REMARK    2  A    between atoms: C_8  and  N_12 
REMARK       I    between atoms: N_12  and  C_13 
REMARK       I    between atoms: C_13  and  N_15 
REMARK    3  A    between atoms: N_15  and  C_16 
REMARK    4  A    between atoms: C_22  and  O_23 
REMARK    5  A    between atoms: O_23  and  C_24 
REMARK    6  A    between atoms: C_27  and  C_31 
REMARK       I    between atoms: C_31  and  N_33 
ROOT
HETATM    1  C   UNK N   1      90.863  14.423  44.654  0.00  0.00     0.075 A 
HETATM    2  C   UNK N   1      91.522  15.659  44.597  0.00  0.00     0.145 A 
HETATM    3  C   UNK N   1      91.549  13.282  44.235  0.00  0.00     0.035 A 
HETATM    4  F   UNK N   1      90.886  16.763  45.023  0.00  0.00    -0.204 F 
HETATM    5  C   UNK N   1      92.824  15.778  44.120  0.00  0.00     0.081 A 
HETATM    6  C   UNK N   1      92.859  13.390  43.750  0.00  0.00     0.040 A 
HETATM    7  C   UNK N   1      93.484  14.635  43.675  0.00  0.00     0.079 A 
ENDROOT
BRANCH   1   8
HETATM    8  N   UNK N   1      89.545  14.423  45.162  0.00  0.00    -0.306 N 
HETATM    9  C   UNK N   1      88.367  14.572  44.454  0.00  0.00     0.325 C 
HETATM   10  N   UNK N   1      87.273  14.451  45.298  0.00  0.00    -0.309 N 
HETATM   11  O   UNK N   1      88.291  14.777  43.249  0.00  0.00    -0.247 OA
HETATM   12  H   UNK N   1      87.451  14.069  46.215  0.00  0.00     0.170 HD
HETATM   13  H   UNK N   1      89.483  14.403  46.171  0.00  0.00     0.171 HD
BRANCH  10  14
HETATM   14  C   UNK N   1      85.922  14.633  44.944  0.00  0.00     0.037 A 
HETATM   15  C   UNK N   1      85.190  15.776  45.280  0.00  0.00     0.047 A 
HETATM   16  C   UNK N   1      83.832  15.909  44.920  0.00  0.00     0.071 A 
HETATM   17  C   UNK N   1      83.219  14.864  44.222  0.00  0.00     0.049 A 
HETATM   18 Cl   UNK N   1      81.565  14.928  43.733  0.00  0.00    -0.083 Cl
HETATM   19  C   UNK N   1      83.941  13.713  43.896  0.00  0.00     0.027 A 
HETATM   20  C   UNK N   1      85.285  13.596  44.260  0.00  0.00     0.031 A 
BRANCH  16  21
HETATM   21  C   UNK N   1      83.075  17.155  45.294  0.00  0.00     0.419 C 
HETATM   22  F   UNK N   1      83.847  18.093  45.914  0.00  0.00    -0.166 F 
HETATM   23  F   UNK N   1      82.530  17.789  44.220  0.00  0.00    -0.166 F 
HETATM   24  F   UNK N   1      82.049  16.912  46.158  0.00  0.00    -0.166 F 
ENDBRANCH  16  21
ENDBRANCH  10  14
ENDBRANCH   1   8
BRANCH   7  25
HETATM   25  O   UNK N   1      94.785  14.657  43.223  0.00  0.00    -0.311 OA
BRANCH  25  26
HETATM   26  C   UNK N   1      95.015  14.245  41.931  0.00  0.00     0.079 A 
HETATM   27  C   UNK N   1      94.006  14.111  40.984  0.00  0.00     0.072 A 
HETATM   28  C   UNK N   1      94.368  13.652  39.726  0.00  0.00     0.103 A 
HETATM   29  N   UNK N   1      95.643  13.314  39.373  0.00  0.00    -0.361 N 
HETATM   30  C   UNK N   1      96.585  13.435  40.332  0.00  0.00     0.091 A 
ATOM     31  HN  UNK N   1      95.871  12.987  38.434  1.00  0.00     0.165 HD
HETATM   32  C   UNK N   1      96.322  13.886  41.614  0.00  0.00     0.054 A 
BRANCH  28  33
HETATM   33  C   UNK N   1      93.323  13.502  38.661  0.00  0.00     0.267 C 
HETATM   34  O   UNK N   1      93.604  13.098  37.539  0.00  0.00    -0.266 OA
HETATM   35  N   UNK N   1      92.053  13.855  39.061  0.00  0.00    -0.360 N 
HETATM   36  C   UNK N   1      90.923  13.799  38.175  0.00  0.00     0.149 C 
HETATM   37  H   UNK N   1      91.954  14.196  40.014  0.00  0.00     0.162 HD
ENDBRANCH  28  33
ENDBRANCH  25  26
ENDBRANCH   7  25
TORSDOF 6
ENDMDL
MODEL 6
REMARK VINA RESULT:      -9.0      6.188      9.093
REMARK  6 active torsions:
REMARK  status: ('A' for Active; 'I' for Inactive)
REMARK    1  A    between atoms: C_3  and  C_6 
REMARK    2  A    between atoms: C_8  and  N_12 
REMARK       I    between atoms: N_12  and  C_13 
REMARK       I    between atoms: C_13  and  N_15 
REMARK    3  A    between atoms: N_15  and  C_16 
REMARK    4  A    between atoms: C_22  and  O_23 
REMARK    5  A    between atoms: O_23  and  C_24 
REMARK    6  A    between atoms: C_27  and  C_31 
REMARK       I    between atoms: C_31  and  N_33 
ROOT
HETATM    1  C   UNK N   1      80.192  23.032  38.341  0.00  0.00     0.075 A 
HETATM    2  C   UNK N   1      81.345  23.611  37.792  0.00  0.00     0.145 A 
HETATM    3  C   UNK N   1      78.953  23.368  37.795  0.00  0.00     0.035 A 
HETATM    4  F   UNK N   1      82.549  23.278  38.287  0.00  0.00    -0.204 F 
HETATM    5  C   UNK N   1      81.283  24.517  36.737  0.00  0.00     0.081 A 
HETATM    6  C   UNK N   1      78.877  24.281  36.735  0.00  0.00     0.040 A 
HETATM    7  C   UNK N   1      80.036  24.867  36.224  0.00  0.00     0.079 A 
ENDROOT
BRANCH   1   8
HETATM    8  N   UNK N   1      80.379  22.121  39.405  0.00  0.00    -0.306 N 
HETATM    9  C   UNK N   1      80.313  22.382  40.761  0.00  0.00     0.325 C 
HETATM   10  N   UNK N   1      80.488  21.214  41.490  0.00  0.00    -0.309 N 
HETATM   11  O   UNK N   1      80.122  23.485  41.258  0.00  0.00    -0.247 OA
HETATM   12  H   UNK N   1      80.418  20.349  40.979  0.00  0.00     0.170 HD
HETATM   13  H   UNK N   1      80.685  21.201  39.122  0.00  0.00     0.171 HD
BRANCH  10  14
HETATM   14  C   UNK N   1      80.571  21.112  42.893  0.00  0.00     0.037 A 
HETATM   15  C   UNK N   1      81.709  21.473  43.621  0.00  0.00     0.047 A 
HETATM   16  C   UNK N   1      81.754  21.336  45.024  0.00  0.00     0.071 A 
HETATM   17  C   UNK N   1      80.634  20.819  45.684  0.00  0.00     0.049 A 
HETATM   18 Cl   UNK N   1      80.587  20.613  47.397  0.00  0.00    -0.083 Cl
HETATM   19  C   UNK N   1      79.500  20.442  44.960  0.00  0.00     0.027 A 
HETATM   20  C   UNK N   1      79.471  20.584  43.570  0.00  0.00     0.031 A 
BRANCH  16  21
HETATM   21  C   UNK N   1      82.993  21.738  45.777  0.00  0.00     0.419 C 
HETATM   22  F   UNK N   1      83.650  20.686  46.345  0.00  0.00    -0.166 F 
HETATM   23  F   UNK N   1      83.917  22.357  44.991  0.00  0.00    -0.166 F 
HETATM   24  F   UNK N   1      82.733  22.592  46.807  0.00  0.00    -0.166 F 
ENDBRANCH  16  21
ENDBRANCH  10  14
ENDBRANCH   1   8
BRANCH   7  25
HETATM   25  O   UNK N   1      79.886  25.726  35.159  0.00  0.00    -0.311 OA
BRANCH  25  26
HETATM   26  C   UNK N   1      79.525  27.024  35.435  0.00  0.00     0.079 A 
HETATM   27  C   UNK N   1      78.555  27.714  34.716  0.00  0.00     0.072 A 
HETATM   28  C   UNK N   1      78.312  29.031  35.074  0.00  0.00     0.103 A 
HETATM   29  N   UNK N   1      78.973  29.687  36.073  0.00  0.00    -0.361 N 
HETATM   30  C   UNK N   1      79.924  28.987  36.726  0.00  0.00     0.091 A 
ATOM     31  HN  UNK N   1      78.759  30.655  36.312  1.00  0.00     0.165 HD
HETATM   32  C   UNK N   1      80.238  27.669  36.443  0.00  0.00     0.054 A 
BRANCH  28  33
HETATM   33  C   UNK N   1      77.266  29.819  34.343  0.00  0.00     0.267 C 
HETATM   34  O   UNK N   1      76.145  29.987  34.810  0.00  0.00    -0.266 OA
HETATM   35  N   UNK N   1      77.681  30.319  33.128  0.00  0.00    -0.360 N 
HETATM   36  C   UNK N   1      76.814  31.082  32.273  0.00  0.00     0.149 C 
HETATM   37  H   UNK N   1      78.630  30.092  32.843  0.00  0.00     0.162 HD
ENDBRANCH  28  33
ENDBRANCH  25  26
ENDBRANCH   7  25
TORSDOF 6
ENDMDL
MODEL 7
REMARK VINA RESULT:      -9.0      7.781     10.928
REMARK  6 active torsions:
REMARK  status: ('A' for Active; 'I' for Inactive)
REMARK    1  A    between atoms: C_3  and  C_6 
REMARK    2  A    between atoms: C_8  and  N_12 
REMARK       I    between atoms: N_12  and  C_13 
REMARK       I    between atoms: C_13  and  N_15 
REMARK    3  A    between atoms: N_15  and  C_16 
REMARK    4  A    between atoms: C_22  and  O_23 
REMARK    5  A    between atoms: O_23  and  C_24 
REMARK    6  A    between atoms: C_27  and  C_31 
REMARK       I    between atoms: C_31  and  N_33 
ROOT
HETATM    1  C   UNK N   1      81.534  21.200  43.087  0.00  0.00     0.075 A 
HETATM    2  C   UNK N   1      80.803  22.397  43.090  0.00  0.00     0.145 A 
HETATM    3  C   UNK N   1      81.526  20.418  41.931  0.00  0.00     0.035 A 
HETATM    4  F   UNK N   1      80.822  23.175  44.185  0.00  0.00    -0.204 F 
HETATM    5  C   UNK N   1      80.063  22.811  41.986  0.00  0.00     0.081 A 
HETATM    6  C   UNK N   1      80.783  20.823  40.814  0.00  0.00     0.040 A 
HETATM    7  C   UNK N   1      80.040  22.003  40.851  0.00  0.00     0.079 A 
ENDROOT
BRANCH   1   8
HETATM    8  N   UNK N   1      82.252  20.885  44.262  0.00  0.00    -0.306 N 
HETATM    9  C   UNK N   1      82.236  19.698  44.969  0.00  0.00     0.325 C 
HETATM   10  N   UNK N   1      83.126  19.752  46.032  0.00  0.00    -0.309 N 
HETATM   11  O   UNK N   1      81.541  18.726  44.698  0.00  0.00    -0.247 OA
HETATM   12  H   UNK N   1      83.793  20.508  46.023  0.00  0.00     0.170 HD
HETATM   13  H   UNK N   1      82.758  21.661  44.666  0.00  0.00     0.171 HD
BRANCH  10  14
HETATM   14  C   UNK N   1      83.310  18.762  47.017  0.00  0.00     0.037 A 
HETATM   15  C   UNK N   1      83.980  17.559  46.776  0.00  0.00     0.047 A 
HETATM   16  C   UNK N   1      84.126  16.586  47.788  0.00  0.00     0.071 A 
HETATM   17  C   UNK N   1      83.575  16.843  49.048  0.00  0.00     0.049 A 
HETATM   18 Cl   UNK N   1      83.700  15.721  50.354  0.00  0.00    -0.083 Cl
HETATM   19  C   UNK N   1      82.892  18.038  49.290  0.00  0.00     0.027 A 
HETATM   20  C   UNK N   1      82.756  18.990  48.278  0.00  0.00     0.031 A 
BRANCH  16  21
HETATM   21  C   UNK N   1      84.857  15.303  47.497  0.00  0.00     0.419 C 
HETATM   22  F   UNK N   1      85.462  15.289  46.275  0.00  0.00    -0.166 F 
HETATM   23  F   UNK N   1      85.847  15.040  48.393  0.00  0.00    -0.166 F 
HETATM   24  F   UNK N   1      84.037  14.215  47.500  0.00  0.00    -0.166 F 
ENDBRANCH  16  21
ENDBRANCH  10  14
ENDBRANCH   1   8
BRANCH   7  25
HETATM   25  O   UNK N   1      79.365  22.355  39.704  0.00  0.00    -0.311 OA
BRANCH  25  26
HETATM   26  C   UNK N   1      80.115  22.610  38.579  0.00  0.00     0.079 A 
HETATM   27  C   UNK N   1      81.109  23.580  38.531  0.00  0.00     0.072 A 
HETATM   28  C   UNK N   1      81.766  23.762  37.324  0.00  0.00     0.103 A 
HETATM   29  N   UNK N   1      81.485  23.060  36.187  0.00  0.00    -0.361 N 
HETATM   30  C   UNK N   1      80.494  22.147  36.273  0.00  0.00     0.091 A 
ATOM     31  HN  UNK N   1      81.997  23.217  35.319  1.00  0.00     0.165 HD
HETATM   32  C   UNK N   1      79.783  21.892  37.433  0.00  0.00     0.054 A 
BRANCH  28  33
HETATM   33  C   UNK N   1      82.859  24.784  37.219  0.00  0.00     0.267 C 
HETATM   34  O   UNK N   1      83.932  24.524  36.688  0.00  0.00    -0.266 OA
HETATM   35  N   UNK N   1      82.542  26.009  37.765  0.00  0.00    -0.360 N 
HETATM   36  C   UNK N   1      83.466  27.109  37.778  0.00  0.00     0.149 C 
HETATM   37  H   UNK N   1      81.624  26.091  38.195  0.00  0.00     0.162 HD
ENDBRANCH  28  33
ENDBRANCH  25  26
ENDBRANCH   7  25
TORSDOF 6
ENDMDL
MODEL 8
REMARK VINA RESULT:      -8.9     27.915     30.456
REMARK  6 active torsions:
REMARK  status: ('A' for Active; 'I' for Inactive)
REMARK    1  A    between atoms: C_3  and  C_6 
REMARK    2  A    between atoms: C_8  and  N_12 
REMARK       I    between atoms: N_12  and  C_13 
REMARK       I    between atoms: C_13  and  N_15 
REMARK    3  A    between atoms: N_15  and  C_16 
REMARK    4  A    between atoms: C_22  and  O_23 
REMARK    5  A    between atoms: O_23  and  C_24 
REMARK    6  A    between atoms: C_27  and  C_31 
REMARK       I    between atoms: C_31  and  N_33 
ROOT
HETATM    1  C   UNK N   1      82.836   3.374  18.544  0.00  0.00     0.075 A 
HETATM    2  C   UNK N   1      82.193   2.641  19.553  0.00  0.00     0.145 A 
HETATM    3  C   UNK N   1      84.110   2.974  18.140  0.00  0.00     0.035 A 
HETATM    4  F   UNK N   1      80.954   2.996  19.934  0.00  0.00    -0.204 F 
HETATM    5  C   UNK N   1      82.796   1.548  20.167  0.00  0.00     0.081 A 
HETATM    6  C   UNK N   1      84.728   1.876  18.752  0.00  0.00     0.040 A 
HETATM    7  C   UNK N   1      84.081   1.181  19.774  0.00  0.00     0.079 A 
ENDROOT
BRANCH   1   8
HETATM    8  N   UNK N   1      82.124   4.461  17.990  0.00  0.00    -0.306 N 
HETATM    9  C   UNK N   1      80.985   4.414  17.209  0.00  0.00     0.325 C 
HETATM   10  N   UNK N   1      80.545   5.696  16.911  0.00  0.00    -0.309 N 
HETATM   11  O   UNK N   1      80.431   3.388  16.832  0.00  0.00    -0.247 OA
HETATM   12  H   UNK N   1      80.946   6.446  17.451  0.00  0.00     0.170 HD
HETATM   13  H   UNK N   1      82.567   5.361  18.113  0.00  0.00     0.171 HD
BRANCH  10  14
HETATM   14  C   UNK N   1      79.469   6.033  16.067  0.00  0.00     0.037 A 
HETATM   15  C   UNK N   1      78.217   6.433  16.544  0.00  0.00     0.047 A 
HETATM   16  C   UNK N   1      77.162   6.745  15.662  0.00  0.00     0.071 A 
HETATM   17  C   UNK N   1      77.386   6.638  14.285  0.00  0.00     0.049 A 
HETATM   18 Cl   UNK N   1      76.163   6.998  13.122  0.00  0.00    -0.083 Cl
HETATM   19  C   UNK N   1      78.630   6.224  13.802  0.00  0.00     0.027 A 
HETATM   20  C   UNK N   1      79.665   5.919  14.689  0.00  0.00     0.031 A 
BRANCH  16  21
HETATM   21  C   UNK N   1      75.828   7.177  16.209  0.00  0.00     0.419 C 
HETATM   22  F   UNK N   1      75.803   7.266  17.570  0.00  0.00    -0.166 F 
HETATM   23  F   UNK N   1      75.440   8.402  15.760  0.00  0.00    -0.166 F 
HETATM   24  F   UNK N   1      74.821   6.315  15.891  0.00  0.00    -0.166 F 
ENDBRANCH  16  21
ENDBRANCH  10  14
ENDBRANCH   1   8
BRANCH   7  25
HETATM   25  O   UNK N   1      84.735   0.091  20.302  0.00  0.00    -0.311 OA
BRANCH  25  26
HETATM   26  C   UNK N   1      84.821   0.004  21.673  0.00  0.00     0.079 A 
HETATM   27  C   UNK N   1      85.682   0.787  22.433  0.00  0.00     0.072 A 
HETATM   28  C   UNK N   1      85.697   0.575  23.803  0.00  0.00     0.103 A 
HETATM   29  N   UNK N   1      84.933  -0.360  24.440  0.00  0.00    -0.361 N 
HETATM   30  C   UNK N   1      84.132  -1.116  23.660  0.00  0.00     0.091 A 
ATOM     31  HN  UNK N   1      84.967  -0.481  25.453  1.00  0.00     0.165 HD
HETATM   32  C   UNK N   1      84.046  -0.977  22.285  0.00  0.00     0.054 A 
BRANCH  28  33
HETATM   33  C   UNK N   1      86.596   1.402  24.673  0.00  0.00     0.267 C 
HETATM   34  O   UNK N   1      87.432   2.160  24.197  0.00  0.00    -0.266 OA
HETATM   35  N   UNK N   1      86.392   1.226  26.025  0.00  0.00    -0.360 N 
HETATM   36  C   UNK N   1      87.169   1.917  27.017  0.00  0.00     0.149 C 
HETATM   37  H   UNK N   1      85.681   0.552  26.294  0.00  0.00     0.162 HD
ENDBRANCH  28  33
ENDBRANCH  25  26
ENDBRANCH   7  25
TORSDOF 6
ENDMDL
MODEL 9
REMARK VINA RESULT:      -8.8      7.129     11.920
REMARK  6 active torsions:
REMARK  status: ('A' for Active; 'I' for Inactive)
REMARK    1  A    between atoms: C_3  and  C_6 
REMARK    2  A    between atoms: C_8  and  N_12 
REMARK       I    between atoms: N_12  and  C_13 
REMARK       I    between atoms: C_13  and  N_15 
REMARK    3  A    between atoms: N_15  and  C_16 
REMARK    4  A    between atoms: C_22  and  O_23 
REMARK    5  A    between atoms: O_23  and  C_24 
REMARK    6  A    between atoms: C_27  and  C_31 
REMARK       I    between atoms: C_31  and  N_33 
ROOT
HETATM    1  C   UNK N   1      81.660  23.343  45.365  0.00  0.00     0.075 A 
HETATM    2  C   UNK N   1      80.723  22.628  46.124  0.00  0.00     0.145 A 
HETATM    3  C   UNK N   1      82.910  22.766  45.137  0.00  0.00     0.035 A 
HETATM    4  F   UNK N   1      79.504  23.156  46.330  0.00  0.00    -0.204 F 
HETATM    5  C   UNK N   1      81.011  21.379  46.665  0.00  0.00     0.081 A 
HETATM    6  C   UNK N   1      83.214  21.510  45.678  0.00  0.00     0.040 A 
HETATM    7  C   UNK N   1      82.274  20.831  46.454  0.00  0.00     0.079 A 
ENDROOT
BRANCH   1   8
HETATM    8  N   UNK N   1      81.254  24.599  44.862  0.00  0.00    -0.306 N 
HETATM    9  C   UNK N   1      81.687  25.849  45.262  0.00  0.00     0.325 C 
HETATM   10  N   UNK N   1      81.103  26.839  44.484  0.00  0.00    -0.309 N 
HETATM   11  O   UNK N   1      82.480  26.063  46.170  0.00  0.00    -0.247 OA
HETATM   12  H   UNK N   1      80.646  26.536  43.638  0.00  0.00     0.170 HD
HETATM   13  H   UNK N   1      80.491  24.560  44.200  0.00  0.00     0.171 HD
BRANCH  10  14
HETATM   14  C   UNK N   1      81.241  28.229  44.662  0.00  0.00     0.037 A 
HETATM   15  C   UNK N   1      82.248  28.982  44.051  0.00  0.00     0.047 A 
HETATM   16  C   UNK N   1      82.360  30.371  44.271  0.00  0.00     0.071 A 
HETATM   17  C   UNK N   1      81.443  30.990  45.127  0.00  0.00     0.049 A 
HETATM   18 Cl   UNK N   1      81.492  32.682  45.461  0.00  0.00    -0.083 Cl
HETATM   19  C   UNK N   1      80.444  30.240  45.752  0.00  0.00     0.027 A 
HETATM   20  C   UNK N   1      80.346  28.865  45.524  0.00  0.00     0.031 A 
BRANCH  16  21
HETATM   21  C   UNK N   1      83.454  31.153  43.594  0.00  0.00     0.419 C 
HETATM   22  F   UNK N   1      84.169  30.418  42.695  0.00  0.00    -0.166 F 
HETATM   23  F   UNK N   1      82.987  32.224  42.894  0.00  0.00    -0.166 F 
HETATM   24  F   UNK N   1      84.377  31.639  44.470  0.00  0.00    -0.166 F 
ENDBRANCH  16  21
ENDBRANCH  10  14
ENDBRANCH   1   8
BRANCH   7  25
HETATM   25  O   UNK N   1      82.630  19.586  46.921  0.00  0.00    -0.311 OA
BRANCH  25  26
HETATM   26  C   UNK N   1      82.879  18.605  45.988  0.00  0.00     0.079 A 
HETATM   27  C   UNK N   1      82.028  18.335  44.923  0.00  0.00     0.072 A 
HETATM   28  C   UNK N   1      82.377  17.295  44.075  0.00  0.00     0.103 A 
HETATM   29  N   UNK N   1      83.490  16.520  44.233  0.00  0.00    -0.361 N 
HETATM   30  C   UNK N   1      84.273  16.801  45.296  0.00  0.00     0.091 A 
ATOM     31  HN  UNK N   1      83.717  15.768  43.582  1.00  0.00     0.165 HD
HETATM   32  C   UNK N   1      84.009  17.819  46.196  0.00  0.00     0.054 A 
BRANCH  28  33
HETATM   33  C   UNK N   1      81.504  16.969  42.900  0.00  0.00     0.267 C 
HETATM   34  O   UNK N   1      81.200  15.814  42.626  0.00  0.00    -0.266 OA
HETATM   35  N   UNK N   1      81.092  18.069  42.179  0.00  0.00    -0.360 N 
HETATM   36  C   UNK N   1      80.266  17.957  41.008  0.00  0.00     0.149 C 
HETATM   37  H   UNK N   1      81.430  18.974  42.496  0.00  0.00     0.162 HD
ENDBRANCH  28  33
ENDBRANCH  25  26
ENDBRANCH   7  25
TORSDOF 6
ENDMDL
