MODEL 1
REMARK VINA RESULT:      -9.0      0.000      0.000
REMARK  16 active torsions:
REMARK  status: ('A' for Active; 'I' for Inactive)
REMARK    1  A    between atoms: C_3  and  O_5 
REMARK    2  A    between atoms: O_5  and  C_9 
REMARK    3  A    between atoms: C_6  and  C_11 
REMARK    4  A    between atoms: C_8  and  O_13 
REMARK    5  A    between atoms: C_16  and  O_21 
REMARK    6  A    between atoms: C_19  and  O_25 
REMARK    7  A    between atoms: C_20  and  C_27 
REMARK    8  A    between atoms: C_22  and  O_28 
REMARK    9  A    between atoms: C_23  and  O_29 
REMARK   10  A    between atoms: C_26  and  O_31 
REMARK   11  A    between atoms: C_27  and  O_32 
REMARK   12  A    between atoms: C_30  and  O_33 
REMARK   13  A    between atoms: O_32  and  C_34 
REMARK   14  A    between atoms: C_36  and  O_38 
REMARK   15  A    between atoms: C_39  and  O_42 
REMARK   16  A    between atoms: C_40  and  O_43 
ROOT
HETATM    1  C   UNK N   1      82.306  24.087  38.330  0.00  0.00     0.298 C 
HETATM    2  O   UNK N   1      81.009  24.649  38.108  0.00  0.00    -0.348 OA
HETATM    3  C   UNK N   1      83.300  24.703  37.328  0.00  0.00     0.205 C 
HETATM    4  C   UNK N   1      80.969  26.057  38.395  0.00  0.00     0.180 C 
HETATM    5  C   UNK N   1      83.306  26.223  37.499  0.00  0.00     0.183 C 
HETATM    6  C   UNK N   1      81.889  26.803  37.420  0.00  0.00     0.180 C 
ENDROOT
BRANCH   1   7
HETATM    7  O   UNK N   1      82.320  22.660  38.119  0.00  0.00    -0.311 OA
BRANCH   7   8
HETATM    8  C   UNK N   1      81.077  22.173  37.733  0.00  0.00     0.157 C 
HETATM    9  C   UNK N   1      80.686  22.171  36.297  0.00  0.00     0.223 C 
HETATM   10  O   UNK N   1      81.327  22.754  35.425  0.00  0.00    -0.284 OA
HETATM   11  C   UNK N   1      79.481  21.418  35.936  0.00  0.00     0.084 A 
HETATM   12  C   UNK N   1      78.697  20.894  36.959  0.00  0.00     0.096 A 
HETATM   13  C   UNK N   1      79.122  21.205  34.600  0.00  0.00     0.085 A 
HETATM   14  C   UNK N   1      77.558  20.150  36.655  0.00  0.00     0.075 A 
HETATM   15  O   UNK N   1      78.994  21.069  38.286  0.00  0.00    -0.306 OA
HETATM   16  C   UNK N   1      77.223  19.926  35.322  0.00  0.00     0.071 A 
HETATM   17  C   UNK N   1      77.992  20.454  34.289  0.00  0.00     0.074 A 
HETATM   18  C   UNK N   1      80.206  21.655  38.620  0.00  0.00     0.124 C 
BRANCH  16  19
HETATM   19  O   UNK N   1      76.119  19.168  35.065  0.00  0.00    -0.361 OA
HETATM   20  H   UNK N   1      76.179  18.347  35.583  0.00  0.00     0.217 HD
ENDBRANCH  16  19
BRANCH  18  21
HETATM   21  C   UNK N   1      80.492  21.601  40.066  0.00  0.00     0.004 A 
HETATM   22  C   UNK N   1      81.260  20.562  40.617  0.00  0.00     0.053 A 
HETATM   23  C   UNK N   1      81.504  20.538  41.984  0.00  0.00     0.099 A 
HETATM   24  C   UNK N   1      81.030  21.554  42.808  0.00  0.00     0.098 A 
HETATM   25  C   UNK N   1      80.263  22.583  42.285  0.00  0.00     0.040 A 
HETATM   26  C   UNK N   1      79.997  22.607  40.913  0.00  0.00     0.017 A 
BRANCH  23  27
HETATM   27  O   UNK N   1      82.192  19.482  42.511  0.00  0.00    -0.358 OA
HETATM   28  H   UNK N   1      81.956  18.706  41.970  0.00  0.00     0.218 HD
ENDBRANCH  23  27
BRANCH  24  29
HETATM   29  O   UNK N   1      81.341  21.569  44.136  0.00  0.00    -0.358 OA
HETATM   30  H   UNK N   1      81.172  20.665  44.461  0.00  0.00     0.218 HD
ENDBRANCH  24  29
ENDBRANCH  18  21
BRANCH  13  31
HETATM   31  O   UNK N   1      79.849  21.692  33.547  0.00  0.00    -0.360 OA
HETATM   32  H   UNK N   1      80.404  20.957  33.198  0.00  0.00     0.217 HD
ENDBRANCH  13  31
ENDBRANCH   7   8
ENDBRANCH   1   7
BRANCH   3  33
HETATM   33  O   UNK N   1      84.639  24.219  37.519  0.00  0.00    -0.388 OA
HETATM   34  H   UNK N   1      84.922  23.857  36.656  0.00  0.00     0.210 HD
ENDBRANCH   3  33
BRANCH   4  35
HETATM   35  C   UNK N   1      79.513  26.528  38.269  0.00  0.00     0.205 C 
BRANCH  35  36
HETATM   36  O   UNK N   1      79.300  27.019  36.935  0.00  0.00    -0.356 OA
BRANCH  36  37
HETATM   37  C   UNK N   1      78.268  28.008  36.896  0.00  0.00     0.291 C 
HETATM   38  O   UNK N   1      77.061  27.464  36.348  0.00  0.00    -0.351 OA
HETATM   39  C   UNK N   1      77.176  27.073  34.978  0.00  0.00     0.152 C 
HETATM   40  C   UNK N   1      77.576  28.262  34.092  0.00  0.00     0.178 C 
HETATM   41  C   UNK N   1      75.831  26.493  34.552  0.00  0.00     0.042 C 
HETATM   42  C   UNK N   1      78.869  28.896  34.613  0.00  0.00     0.183 C 
HETATM   43  C   UNK N   1      78.761  29.233  36.099  0.00  0.00     0.204 C 
BRANCH  40  44
HETATM   44  O   UNK N   1      77.779  27.880  32.724  0.00  0.00    -0.390 OA
HETATM   45  H   UNK N   1      76.910  27.865  32.282  0.00  0.00     0.210 HD
ENDBRANCH  40  44
BRANCH  42  46
HETATM   46  O   UNK N   1      79.137  30.102  33.866  0.00  0.00    -0.390 OA
HETATM   47  H   UNK N   1      78.647  30.806  34.339  0.00  0.00     0.210 HD
ENDBRANCH  42  46
BRANCH  43  48
HETATM   48  O   UNK N   1      77.869  30.350  36.261  0.00  0.00    -0.388 OA
HETATM   49  H   UNK N   1      78.382  31.002  36.781  0.00  0.00     0.210 HD
ENDBRANCH  43  48
ENDBRANCH  36  37
ENDBRANCH  35  36
ENDBRANCH   4  35
BRANCH   5  50
HETATM   50  O   UNK N   1      84.119  26.836  36.484  0.00  0.00    -0.390 OA
HETATM   51  H   UNK N   1      84.067  26.229  35.717  0.00  0.00     0.210 HD
ENDBRANCH   5  50
BRANCH   6  52
HETATM   52  O   UNK N   1      81.938  28.197  37.720  0.00  0.00    -0.390 OA
HETATM   53  H   UNK N   1      82.862  28.468  37.540  0.00  0.00     0.210 HD
ENDBRANCH   6  52
TORSDOF 16
ENDMDL
MODEL 2
REMARK VINA RESULT:      -8.9     11.778     15.934
REMARK  16 active torsions:
REMARK  status: ('A' for Active; 'I' for Inactive)
REMARK    1  A    between atoms: C_3  and  O_5 
REMARK    2  A    between atoms: O_5  and  C_9 
REMARK    3  A    between atoms: C_6  and  C_11 
REMARK    4  A    between atoms: C_8  and  O_13 
REMARK    5  A    between atoms: C_16  and  O_21 
REMARK    6  A    between atoms: C_19  and  O_25 
REMARK    7  A    between atoms: C_20  and  C_27 
REMARK    8  A    between atoms: C_22  and  O_28 
REMARK    9  A    between atoms: C_23  and  O_29 
REMARK   10  A    between atoms: C_26  and  O_31 
REMARK   11  A    between atoms: C_27  and  O_32 
REMARK   12  A    between atoms: C_30  and  O_33 
REMARK   13  A    between atoms: O_32  and  C_34 
REMARK   14  A    between atoms: C_36  and  O_38 
REMARK   15  A    between atoms: C_39  and  O_42 
REMARK   16  A    between atoms: C_40  and  O_43 
ROOT
HETATM    1  C   UNK N   1      88.877  14.142  44.642  0.00  0.00     0.298 C 
HETATM    2  O   UNK N   1      89.484  14.130  43.346  0.00  0.00    -0.348 OA
HETATM    3  C   UNK N   1      89.962  13.901  45.708  0.00  0.00     0.205 C 
HETATM    4  C   UNK N   1      90.402  15.220  43.165  0.00  0.00     0.180 C 
HETATM    5  C   UNK N   1      91.039  14.979  45.579  0.00  0.00     0.183 C 
HETATM    6  C   UNK N   1      91.573  15.070  44.145  0.00  0.00     0.180 C 
ENDROOT
BRANCH   1   7
HETATM    7  O   UNK N   1      87.897  13.094  44.790  0.00  0.00    -0.311 OA
BRANCH   7   8
HETATM    8  C   UNK N   1      86.596  13.578  44.733  0.00  0.00     0.157 C 
HETATM    9  C   UNK N   1      86.066  14.436  45.828  0.00  0.00     0.223 C 
HETATM   10  O   UNK N   1      86.653  14.601  46.895  0.00  0.00    -0.284 OA
HETATM   11  C   UNK N   1      84.790  15.114  45.585  0.00  0.00     0.084 A 
HETATM   12  C   UNK N   1      84.080  14.794  44.431  0.00  0.00     0.096 A 
HETATM   13  C   UNK N   1      84.290  16.076  46.469  0.00  0.00     0.085 A 
HETATM   14  C   UNK N   1      82.875  15.437  44.153  0.00  0.00     0.075 A 
HETATM   15  O   UNK N   1      84.515  13.860  43.527  0.00  0.00    -0.306 OA
HETATM   16  C   UNK N   1      82.397  16.408  45.030  0.00  0.00     0.071 A 
HETATM   17  C   UNK N   1      83.092  16.729  46.193  0.00  0.00     0.074 A 
HETATM   18  C   UNK N   1      85.786  13.329  43.686  0.00  0.00     0.124 C 
BRANCH  16  19
HETATM   19  O   UNK N   1      81.231  17.036  44.707  0.00  0.00    -0.361 OA
HETATM   20  H   UNK N   1      81.124  17.808  45.288  0.00  0.00     0.217 HD
ENDBRANCH  16  19
BRANCH  18  21
HETATM   21  C   UNK N   1      86.208  12.497  42.543  0.00  0.00     0.004 A 
HETATM   22  C   UNK N   1      86.862  13.059  41.436  0.00  0.00     0.053 A 
HETATM   23  C   UNK N   1      87.240  12.247  40.373  0.00  0.00     0.099 A 
HETATM   24  C   UNK N   1      87.013  10.875  40.414  0.00  0.00     0.098 A 
HETATM   25  C   UNK N   1      86.361  10.302  41.494  0.00  0.00     0.040 A 
HETATM   26  C   UNK N   1      85.962  11.113  42.560  0.00  0.00     0.017 A 
BRANCH  23  27
HETATM   27  O   UNK N   1      87.810  12.824  39.275  0.00  0.00    -0.358 OA
HETATM   28  H   UNK N   1      88.678  12.395  39.161  0.00  0.00     0.218 HD
ENDBRANCH  23  27
BRANCH  24  29
HETATM   29  O   UNK N   1      87.458  10.071  39.406  0.00  0.00    -0.358 OA
HETATM   30  H   UNK N   1      86.661   9.781  38.923  0.00  0.00     0.218 HD
ENDBRANCH  24  29
ENDBRANCH  18  21
BRANCH  13  31
HETATM   31  O   UNK N   1      84.939  16.438  47.620  0.00  0.00    -0.360 OA
HETATM   32  H   UNK N   1      85.889  16.205  47.516  0.00  0.00     0.217 HD
ENDBRANCH  13  31
ENDBRANCH   7   8
ENDBRANCH   1   7
BRANCH   3  33
HETATM   33  O   UNK N   1      89.434  13.944  47.043  0.00  0.00    -0.388 OA
HETATM   34  H   UNK N   1      90.181  13.730  47.637  0.00  0.00     0.210 HD
ENDBRANCH   3  33
BRANCH   4  35
HETATM   35  C   UNK N   1      90.882  15.202  41.706  0.00  0.00     0.205 C 
BRANCH  35  36
HETATM   36  O   UNK N   1      92.167  14.561  41.650  0.00  0.00    -0.356 OA
BRANCH  36  37
HETATM   37  C   UNK N   1      92.053  13.186  41.276  0.00  0.00     0.291 C 
HETATM   38  O   UNK N   1      93.323  12.660  40.871  0.00  0.00    -0.351 OA
HETATM   39  C   UNK N   1      93.846  13.267  39.688  0.00  0.00     0.152 C 
HETATM   40  C   UNK N   1      92.888  13.090  38.501  0.00  0.00     0.178 C 
HETATM   41  C   UNK N   1      95.201  12.628  39.404  0.00  0.00     0.042 C 
HETATM   42  C   UNK N   1      91.501  13.638  38.856  0.00  0.00     0.183 C 
HETATM   43  C   UNK N   1      90.990  13.042  40.166  0.00  0.00     0.204 C 
BRANCH  40  44
HETATM   44  O   UNK N   1      93.349  13.761  37.319  0.00  0.00    -0.390 OA
HETATM   45  H   UNK N   1      94.233  13.412  37.099  0.00  0.00     0.210 HD
ENDBRANCH  40  44
BRANCH  42  46
HETATM   46  O   UNK N   1      90.581  13.317  37.792  0.00  0.00    -0.390 OA
HETATM   47  H   UNK N   1      90.703  12.358  37.633  0.00  0.00     0.210 HD
ENDBRANCH  42  46
BRANCH  43  48
HETATM   48  O   UNK N   1      90.650  11.662  39.951  0.00  0.00    -0.388 OA
HETATM   49  H   UNK N   1      91.512  11.206  39.860  0.00  0.00     0.210 HD
ENDBRANCH  43  48
ENDBRANCH  36  37
ENDBRANCH  35  36
ENDBRANCH   4  35
BRANCH   5  50
HETATM   50  O   UNK N   1      92.134  14.699  46.467  0.00  0.00    -0.390 OA
HETATM   51  H   UNK N   1      91.740  14.186  47.203  0.00  0.00     0.210 HD
ENDBRANCH   5  50
BRANCH   6  52
HETATM   52  O   UNK N   1      92.471  16.175  44.050  0.00  0.00    -0.390 OA
HETATM   53  H   UNK N   1      92.173  16.684  43.267  0.00  0.00     0.210 HD
ENDBRANCH   6  52
TORSDOF 16
ENDMDL
MODEL 3
REMARK VINA RESULT:      -8.8     14.005     17.466
REMARK  16 active torsions:
REMARK  status: ('A' for Active; 'I' for Inactive)
REMARK    1  A    between atoms: C_3  and  O_5 
REMARK    2  A    between atoms: O_5  and  C_9 
REMARK    3  A    between atoms: C_6  and  C_11 
REMARK    4  A    between atoms: C_8  and  O_13 
REMARK    5  A    between atoms: C_16  and  O_21 
REMARK    6  A    between atoms: C_19  and  O_25 
REMARK    7  A    between atoms: C_20  and  C_27 
REMARK    8  A    between atoms: C_22  and  O_28 
REMARK    9  A    between atoms: C_23  and  O_29 
REMARK   10  A    between atoms: C_26  and  O_31 
REMARK   11  A    between atoms: C_27  and  O_32 
REMARK   12  A    between atoms: C_30  and  O_33 
REMARK   13  A    between atoms: O_32  and  C_34 
REMARK   14  A    between atoms: C_36  and  O_38 
REMARK   15  A    between atoms: C_39  and  O_42 
REMARK   16  A    between atoms: C_40  and  O_43 
ROOT
HETATM    1  C   UNK N   1      89.103  13.651  40.887  0.00  0.00     0.298 C 
HETATM    2  O   UNK N   1      90.366  14.290  40.678  0.00  0.00    -0.348 OA
HETATM    3  C   UNK N   1      88.351  13.574  39.546  0.00  0.00     0.205 C 
HETATM    4  C   UNK N   1      91.235  13.518  39.833  0.00  0.00     0.180 C 
HETATM    5  C   UNK N   1      89.208  12.813  38.533  0.00  0.00     0.183 C 
HETATM    6  C   UNK N   1      90.617  13.408  38.432  0.00  0.00     0.180 C 
ENDROOT
BRANCH   1   7
HETATM    7  O   UNK N   1      88.267  14.390  41.801  0.00  0.00    -0.311 OA
BRANCH   7   8
HETATM    8  C   UNK N   1      88.094  13.728  43.010  0.00  0.00     0.157 C 
HETATM    9  C   UNK N   1      87.023  12.706  43.159  0.00  0.00     0.223 C 
HETATM   10  O   UNK N   1      86.140  12.532  42.322  0.00  0.00    -0.284 OA
HETATM   11  C   UNK N   1      87.060  11.873  44.365  0.00  0.00     0.084 A 
HETATM   12  C   UNK N   1      87.981  12.189  45.359  0.00  0.00     0.096 A 
HETATM   13  C   UNK N   1      86.211  10.771  44.522  0.00  0.00     0.085 A 
HETATM   14  C   UNK N   1      88.063  11.405  46.509  0.00  0.00     0.075 A 
HETATM   15  O   UNK N   1      88.837  13.255  45.266  0.00  0.00    -0.306 OA
HETATM   16  C   UNK N   1      87.228  10.299  46.644  0.00  0.00     0.071 A 
HETATM   17  C   UNK N   1      86.295   9.978  45.662  0.00  0.00     0.074 A 
HETATM   18  C   UNK N   1      88.899  13.950  44.067  0.00  0.00     0.124 C 
BRANCH  16  19
HETATM   19  O   UNK N   1      87.360   9.539  47.769  0.00  0.00    -0.361 OA
HETATM   20  H   UNK N   1      88.217   9.080  47.733  0.00  0.00     0.217 HD
ENDBRANCH  16  19
BRANCH  18  21
HETATM   21  C   UNK N   1      89.996  14.936  44.030  0.00  0.00     0.004 A 
HETATM   22  C   UNK N   1      89.741  16.299  43.810  0.00  0.00     0.053 A 
HETATM   23  C   UNK N   1      90.798  17.200  43.773  0.00  0.00     0.099 A 
HETATM   24  C   UNK N   1      92.103  16.771  43.994  0.00  0.00     0.098 A 
HETATM   25  C   UNK N   1      92.377  15.428  44.204  0.00  0.00     0.040 A 
HETATM   26  C   UNK N   1      91.321  14.512  44.225  0.00  0.00     0.017 A 
BRANCH  23  27
HETATM   27  O   UNK N   1      90.538  18.509  43.487  0.00  0.00    -0.358 OA
HETATM   28  H   UNK N   1      90.853  19.024  44.253  0.00  0.00     0.218 HD
ENDBRANCH  23  27
BRANCH  24  29
HETATM   29  O   UNK N   1      93.129  17.670  44.037  0.00  0.00    -0.358 OA
HETATM   30  H   UNK N   1      92.724  18.528  44.262  0.00  0.00     0.218 HD
ENDBRANCH  24  29
ENDBRANCH  18  21
BRANCH  13  31
HETATM   31  O   UNK N   1      85.285  10.405  43.581  0.00  0.00    -0.360 OA
HETATM   32  H   UNK N   1      84.635   9.806  44.016  0.00  0.00     0.217 HD
ENDBRANCH  13  31
ENDBRANCH   7   8
ENDBRANCH   1   7
BRANCH   3  33
HETATM   33  O   UNK N   1      87.087  12.901  39.666  0.00  0.00    -0.388 OA
HETATM   34  H   UNK N   1      86.519  13.485  40.206  0.00  0.00     0.210 HD
ENDBRANCH   3  33
BRANCH   4  35
HETATM   35  C   UNK N   1      92.603  14.213  39.793  0.00  0.00     0.205 C 
BRANCH  35  36
HETATM   36  O   UNK N   1      93.630  13.209  39.730  0.00  0.00    -0.356 OA
BRANCH  36  37
HETATM   37  C   UNK N   1      94.936  13.788  39.763  0.00  0.00     0.291 C 
HETATM   38  O   UNK N   1      95.943  12.787  39.575  0.00  0.00    -0.351 OA
HETATM   39  C   UNK N   1      95.999  11.822  40.629  0.00  0.00     0.152 C 
HETATM   40  C   UNK N   1      96.277  12.491  41.983  0.00  0.00     0.178 C 
HETATM   41  C   UNK N   1      97.090  10.817  40.274  0.00  0.00     0.042 C 
HETATM   42  C   UNK N   1      95.232  13.577  42.260  0.00  0.00     0.183 C 
HETATM   43  C   UNK N   1      95.124  14.553  41.090  0.00  0.00     0.204 C 
BRANCH  40  44
HETATM   44  O   UNK N   1      96.256  11.556  43.071  0.00  0.00    -0.390 OA
HETATM   45  H   UNK N   1      95.627  10.845  42.847  0.00  0.00     0.210 HD
ENDBRANCH  40  44
BRANCH  42  46
HETATM   46  O   UNK N   1      95.604  14.297  43.453  0.00  0.00    -0.390 OA
HETATM   47  H   UNK N   1      95.498  15.243  43.221  0.00  0.00     0.210 HD
ENDBRANCH  42  46
BRANCH  43  48
HETATM   48  O   UNK N   1      96.307  15.370  41.053  0.00  0.00    -0.388 OA
HETATM   49  H   UNK N   1      95.972  16.290  41.023  0.00  0.00     0.210 HD
ENDBRANCH  43  48
ENDBRANCH  36  37
ENDBRANCH  35  36
ENDBRANCH   4  35
BRANCH   5  50
HETATM   50  O   UNK N   1      88.594  12.847  37.234  0.00  0.00    -0.390 OA
HETATM   51  H   UNK N   1      87.761  13.347  37.360  0.00  0.00     0.210 HD
ENDBRANCH   5  50
BRANCH   6  52
HETATM   52  O   UNK N   1      91.413  12.583  37.581  0.00  0.00    -0.390 OA
HETATM   53  H   UNK N   1      90.772  12.047  37.069  0.00  0.00     0.210 HD
ENDBRANCH   6  52
TORSDOF 16
ENDMDL
MODEL 4
REMARK VINA RESULT:      -8.7     14.136     18.000
REMARK  16 active torsions:
REMARK  status: ('A' for Active; 'I' for Inactive)
REMARK    1  A    between atoms: C_3  and  O_5 
REMARK    2  A    between atoms: O_5  and  C_9 
REMARK    3  A    between atoms: C_6  and  C_11 
REMARK    4  A    between atoms: C_8  and  O_13 
REMARK    5  A    between atoms: C_16  and  O_21 
REMARK    6  A    between atoms: C_19  and  O_25 
REMARK    7  A    between atoms: C_20  and  C_27 
REMARK    8  A    between atoms: C_22  and  O_28 
REMARK    9  A    between atoms: C_23  and  O_29 
REMARK   10  A    between atoms: C_26  and  O_31 
REMARK   11  A    between atoms: C_27  and  O_32 
REMARK   12  A    between atoms: C_30  and  O_33 
REMARK   13  A    between atoms: O_32  and  C_34 
REMARK   14  A    between atoms: C_36  and  O_38 
REMARK   15  A    between atoms: C_39  and  O_42 
REMARK   16  A    between atoms: C_40  and  O_43 
ROOT
HETATM    1  C   UNK N   1      91.102  13.962  39.853  0.00  0.00     0.298 C 
HETATM    2  O   UNK N   1      92.343  14.537  40.272  0.00  0.00    -0.348 OA
HETATM    3  C   UNK N   1      91.157  13.697  38.337  0.00  0.00     0.205 C 
HETATM    4  C   UNK N   1      93.445  13.628  40.115  0.00  0.00     0.180 C 
HETATM    5  C   UNK N   1      92.337  12.775  38.032  0.00  0.00     0.183 C 
HETATM    6  C   UNK N   1      93.642  13.319  38.625  0.00  0.00     0.180 C 
ENDROOT
BRANCH   1   7
HETATM    7  O   UNK N   1      89.989  14.849  40.089  0.00  0.00    -0.311 OA
BRANCH   7   8
HETATM    8  C   UNK N   1      89.081  14.323  41.000  0.00  0.00     0.157 C 
HETATM    9  C   UNK N   1      87.959  13.466  40.530  0.00  0.00     0.223 C 
HETATM   10  O   UNK N   1      87.663  13.336  39.343  0.00  0.00    -0.284 OA
HETATM   11  C   UNK N   1      87.198  12.744  41.554  0.00  0.00     0.084 A 
HETATM   12  C   UNK N   1      87.459  13.022  42.892  0.00  0.00     0.096 A 
HETATM   13  C   UNK N   1      86.241  11.780  41.214  0.00  0.00     0.085 A 
HETATM   14  C   UNK N   1      86.774  12.338  43.894  0.00  0.00     0.075 A 
HETATM   15  O   UNK N   1      88.381  13.956  43.289  0.00  0.00    -0.306 OA
HETATM   16  C   UNK N   1      85.840  11.366  43.545  0.00  0.00     0.071 A 
HETATM   17  C   UNK N   1      85.561  11.085  42.210  0.00  0.00     0.074 A 
HETATM   18  C   UNK N   1      89.198  14.529  42.326  0.00  0.00     0.124 C 
BRANCH  16  19
HETATM   19  O   UNK N   1      85.214  10.696  44.553  0.00  0.00    -0.361 OA
HETATM   20  H   UNK N   1      84.636  11.319  45.027  0.00  0.00     0.217 HD
ENDBRANCH  16  19
BRANCH  18  21
HETATM   21  C   UNK N   1      90.274  15.357  42.903  0.00  0.00     0.004 A 
HETATM   22  C   UNK N   1      91.536  14.811  43.191  0.00  0.00     0.053 A 
HETATM   23  C   UNK N   1      92.525  15.617  43.741  0.00  0.00     0.099 A 
HETATM   24  C   UNK N   1      92.292  16.969  43.970  0.00  0.00     0.098 A 
HETATM   25  C   UNK N   1      91.051  17.525  43.701  0.00  0.00     0.040 A 
HETATM   26  C   UNK N   1      90.043  16.718  43.164  0.00  0.00     0.017 A 
BRANCH  23  27
HETATM   27  O   UNK N   1      93.720  15.052  44.080  0.00  0.00    -0.358 OA
HETATM   28  H   UNK N   1      93.762  14.199  43.611  0.00  0.00     0.218 HD
ENDBRANCH  23  27
BRANCH  24  29
HETATM   29  O   UNK N   1      93.290  17.775  44.434  0.00  0.00    -0.358 OA
HETATM   30  H   UNK N   1      94.006  17.722  43.773  0.00  0.00     0.218 HD
ENDBRANCH  24  29
ENDBRANCH  18  21
BRANCH  13  31
HETATM   31  O   UNK N   1      85.937  11.457  39.918  0.00  0.00    -0.360 OA
HETATM   32  H   UNK N   1      86.510  12.000  39.330  0.00  0.00     0.217 HD
ENDBRANCH  13  31
ENDBRANCH   7   8
ENDBRANCH   1   7
BRANCH   3  33
HETATM   33  O   UNK N   1      89.957  13.076  37.848  0.00  0.00    -0.388 OA
HETATM   34  H   UNK N   1      90.147  12.118  37.803  0.00  0.00     0.210 HD
ENDBRANCH   3  33
BRANCH   4  35
HETATM   35  C   UNK N   1      94.694  14.282  40.725  0.00  0.00     0.205 C 
BRANCH  35  36
HETATM   36  O   UNK N   1      95.618  13.248  41.104  0.00  0.00    -0.356 OA
BRANCH  36  37
HETATM   37  C   UNK N   1      96.841  13.339  40.369  0.00  0.00     0.291 C 
HETATM   38  O   UNK N   1      97.394  12.039  40.135  0.00  0.00    -0.351 OA
HETATM   39  C   UNK N   1      97.792  11.359  41.327  0.00  0.00     0.152 C 
HETATM   40  C   UNK N   1      98.847  12.163  42.100  0.00  0.00     0.178 C 
HETATM   41  C   UNK N   1      98.329   9.991  40.919  0.00  0.00     0.042 C 
HETATM   42  C   UNK N   1      98.325  13.573  42.396  0.00  0.00     0.183 C 
HETATM   43  C   UNK N   1      97.825  14.256  41.125  0.00  0.00     0.204 C 
BRANCH  40  44
HETATM   44  O   UNK N   1      99.205  11.544  43.344  0.00  0.00    -0.390 OA
HETATM   45  H   UNK N   1      98.438  11.030  43.659  0.00  0.00     0.210 HD
ENDBRANCH  40  44
BRANCH  42  46
HETATM   46  O   UNK N   1      99.387  14.358  42.977  0.00  0.00    -0.390 OA
HETATM   47  H   UNK N   1      98.970  14.831  43.727  0.00  0.00     0.210 HD
ENDBRANCH  42  46
BRANCH  43  48
HETATM   48  O   UNK N   1      98.956  14.593  40.301  0.00  0.00    -0.388 OA
HETATM   49  H   UNK N   1      98.706  14.291  39.403  0.00  0.00     0.210 HD
ENDBRANCH  43  48
ENDBRANCH  36  37
ENDBRANCH  35  36
ENDBRANCH   4  35
BRANCH   5  50
HETATM   50  O   UNK N   1      92.498  12.623  36.612  0.00  0.00    -0.390 OA
HETATM   51  H   UNK N   1      92.893  11.734  36.494  0.00  0.00     0.210 HD
ENDBRANCH   5  50
BRANCH   6  52
HETATM   52  O   UNK N   1      94.680  12.359  38.429  0.00  0.00    -0.390 OA
HETATM   53  H   UNK N   1      94.521  11.985  37.538  0.00  0.00     0.210 HD
ENDBRANCH   6  52
TORSDOF 16
ENDMDL
MODEL 5
REMARK VINA RESULT:      -8.7     12.972     17.289
REMARK  16 active torsions:
REMARK  status: ('A' for Active; 'I' for Inactive)
REMARK    1  A    between atoms: C_3  and  O_5 
REMARK    2  A    between atoms: O_5  and  C_9 
REMARK    3  A    between atoms: C_6  and  C_11 
REMARK    4  A    between atoms: C_8  and  O_13 
REMARK    5  A    between atoms: C_16  and  O_21 
REMARK    6  A    between atoms: C_19  and  O_25 
REMARK    7  A    between atoms: C_20  and  C_27 
REMARK    8  A    between atoms: C_22  and  O_28 
REMARK    9  A    between atoms: C_23  and  O_29 
REMARK   10  A    between atoms: C_26  and  O_31 
REMARK   11  A    between atoms: C_27  and  O_32 
REMARK   12  A    between atoms: C_30  and  O_33 
REMARK   13  A    between atoms: O_32  and  C_34 
REMARK   14  A    between atoms: C_36  and  O_38 
REMARK   15  A    between atoms: C_39  and  O_42 
REMARK   16  A    between atoms: C_40  and  O_43 
ROOT
HETATM    1  C   UNK N   1      91.390  14.444  42.531  0.00  0.00     0.298 C 
HETATM    2  O   UNK N   1      90.034  13.989  42.591  0.00  0.00    -0.348 OA
HETATM    3  C   UNK N   1      91.520  15.742  43.349  0.00  0.00     0.205 C 
HETATM    4  C   UNK N   1      89.645  13.607  43.920  0.00  0.00     0.180 C 
HETATM    5  C   UNK N   1      91.077  15.475  44.788  0.00  0.00     0.183 C 
HETATM    6  C   UNK N   1      89.684  14.837  44.836  0.00  0.00     0.180 C 
ENDROOT
BRANCH   1   7
HETATM    7  O   UNK N   1      91.799  14.748  41.182  0.00  0.00    -0.311 OA
BRANCH   7   8
HETATM    8  C   UNK N   1      92.786  13.884  40.724  0.00  0.00     0.157 C 
HETATM    9  C   UNK N   1      94.219  14.161  41.015  0.00  0.00     0.223 C 
HETATM   10  O   UNK N   1      94.615  15.224  41.487  0.00  0.00    -0.284 OA
HETATM   11  C   UNK N   1      95.176  13.089  40.726  0.00  0.00     0.084 A 
HETATM   12  C   UNK N   1      94.720  11.956  40.058  0.00  0.00     0.096 A 
HETATM   13  C   UNK N   1      96.516  13.175  41.121  0.00  0.00     0.085 A 
HETATM   14  C   UNK N   1      95.595  10.905  39.789  0.00  0.00     0.075 A 
HETATM   15  O   UNK N   1      93.422  11.812  39.643  0.00  0.00    -0.306 OA
HETATM   16  C   UNK N   1      96.921  10.993  40.206  0.00  0.00     0.071 A 
HETATM   17  C   UNK N   1      97.393  12.125  40.865  0.00  0.00     0.074 A 
HETATM   18  C   UNK N   1      92.491  12.759  40.043  0.00  0.00     0.124 C 
BRANCH  16  19
HETATM   19  O   UNK N   1      97.737   9.932  39.952  0.00  0.00    -0.361 OA
HETATM   20  H   UNK N   1      98.592  10.087  40.389  0.00  0.00     0.217 HD
ENDBRANCH  16  19
BRANCH  18  21
HETATM   21  C   UNK N   1      91.105  12.383  39.705  0.00  0.00     0.004 A 
HETATM   22  C   UNK N   1      90.459  12.921  38.581  0.00  0.00     0.053 A 
HETATM   23  C   UNK N   1      89.151  12.550  38.296  0.00  0.00     0.099 A 
HETATM   24  C   UNK N   1      88.488  11.620  39.090  0.00  0.00     0.098 A 
HETATM   25  C   UNK N   1      89.105  11.084  40.210  0.00  0.00     0.040 A 
HETATM   26  C   UNK N   1      90.415  11.464  40.515  0.00  0.00     0.017 A 
BRANCH  23  27
HETATM   27  O   UNK N   1      88.516  13.138  37.239  0.00  0.00    -0.358 OA
HETATM   28  H   UNK N   1      88.963  12.811  36.437  0.00  0.00     0.218 HD
ENDBRANCH  23  27
BRANCH  24  29
HETATM   29  O   UNK N   1      87.233  11.199  38.761  0.00  0.00    -0.358 OA
HETATM   30  H   UNK N   1      86.781  11.974  38.381  0.00  0.00     0.218 HD
ENDBRANCH  24  29
ENDBRANCH  18  21
BRANCH  13  31
HETATM   31  O   UNK N   1      97.029  14.260  41.782  0.00  0.00    -0.360 OA
HETATM   32  H   UNK N   1      96.980  15.034  41.175  0.00  0.00     0.217 HD
ENDBRANCH  13  31
ENDBRANCH   7   8
ENDBRANCH   1   7
BRANCH   3  33
HETATM   33  O   UNK N   1      92.868  16.238  43.374  0.00  0.00    -0.388 OA
HETATM   34  H   UNK N   1      93.046  16.495  44.300  0.00  0.00     0.210 HD
ENDBRANCH   3  33
BRANCH   4  35
HETATM   35  C   UNK N   1      88.236  13.000  43.850  0.00  0.00     0.205 C 
BRANCH  35  36
HETATM   36  O   UNK N   1      87.274  14.033  44.116  0.00  0.00    -0.356 OA
BRANCH  36  37
HETATM   37  C   UNK N   1      85.993  13.489  44.441  0.00  0.00     0.291 C 
HETATM   38  O   UNK N   1      84.985  14.508  44.419  0.00  0.00    -0.351 OA
HETATM   39  C   UNK N   1      85.163  15.515  45.418  0.00  0.00     0.152 C 
HETATM   40  C   UNK N   1      85.158  14.907  46.828  0.00  0.00     0.178 C 
HETATM   41  C   UNK N   1      84.040  16.532  45.250  0.00  0.00     0.042 C 
HETATM   42  C   UNK N   1      86.220  13.807  46.934  0.00  0.00     0.183 C 
HETATM   43  C   UNK N   1      86.068  12.783  45.811  0.00  0.00     0.204 C 
BRANCH  40  44
HETATM   44  O   UNK N   1      85.417  15.884  47.847  0.00  0.00    -0.390 OA
HETATM   45  H   UNK N   1      85.393  15.434  48.712  0.00  0.00     0.210 HD
ENDBRANCH  40  44
BRANCH  42  46
HETATM   46  O   UNK N   1      86.088  13.145  48.209  0.00  0.00    -0.390 OA
HETATM   47  H   UNK N   1      86.917  13.352  48.688  0.00  0.00     0.210 HD
ENDBRANCH  42  46
BRANCH  43  48
HETATM   48  O   UNK N   1      84.889  11.995  46.053  0.00  0.00    -0.388 OA
HETATM   49  H   UNK N   1      85.208  11.224  46.566  0.00  0.00     0.210 HD
ENDBRANCH  43  48
ENDBRANCH  36  37
ENDBRANCH  35  36
ENDBRANCH   4  35
BRANCH   5  50
HETATM   50  O   UNK N   1      91.055  16.701  45.538  0.00  0.00    -0.390 OA
HETATM   51  H   UNK N   1      91.188  16.430  46.470  0.00  0.00     0.210 HD
ENDBRANCH   5  50
BRANCH   6  52
HETATM   52  O   UNK N   1      89.377  14.486  46.185  0.00  0.00    -0.390 OA
HETATM   53  H   UNK N   1      89.905  13.681  46.369  0.00  0.00     0.210 HD
ENDBRANCH   6  52
TORSDOF 16
ENDMDL
MODEL 6
REMARK VINA RESULT:      -8.6     14.301     16.974
REMARK  16 active torsions:
REMARK  status: ('A' for Active; 'I' for Inactive)
REMARK    1  A    between atoms: C_3  and  O_5 
REMARK    2  A    between atoms: O_5  and  C_9 
REMARK    3  A    between atoms: C_6  and  C_11 
REMARK    4  A    between atoms: C_8  and  O_13 
REMARK    5  A    between atoms: C_16  and  O_21 
REMARK    6  A    between atoms: C_19  and  O_25 
REMARK    7  A    between atoms: C_20  and  C_27 
REMARK    8  A    between atoms: C_22  and  O_28 
REMARK    9  A    between atoms: C_23  and  O_29 
REMARK   10  A    between atoms: C_26  and  O_31 
REMARK   11  A    between atoms: C_27  and  O_32 
REMARK   12  A    between atoms: C_30  and  O_33 
REMARK   13  A    between atoms: O_32  and  C_34 
REMARK   14  A    between atoms: C_36  and  O_38 
REMARK   15  A    between atoms: C_39  and  O_42 
REMARK   16  A    between atoms: C_40  and  O_43 
ROOT
HETATM    1  C   UNK N   1      89.157  12.126  40.237  0.00  0.00     0.298 C 
HETATM    2  O   UNK N   1      90.312  12.871  40.634  0.00  0.00    -0.348 OA
HETATM    3  C   UNK N   1      88.173  12.057  41.420  0.00  0.00     0.205 C 
HETATM    4  C   UNK N   1      90.004  14.247  40.915  0.00  0.00     0.180 C 
HETATM    5  C   UNK N   1      87.807  13.478  41.851  0.00  0.00     0.183 C 
HETATM    6  C   UNK N   1      89.059  14.322  42.121  0.00  0.00     0.180 C 
ENDROOT
BRANCH   1   7
HETATM    7  O   UNK N   1      89.486  10.768  39.879  0.00  0.00    -0.311 OA
BRANCH   7   8
HETATM    8  C   UNK N   1      89.210  10.494  38.546  0.00  0.00     0.157 C 
HETATM    9  C   UNK N   1      87.860  10.017  38.142  0.00  0.00     0.223 C 
HETATM   10  O   UNK N   1      87.003   9.663  38.949  0.00  0.00    -0.284 OA
HETATM   11  C   UNK N   1      87.564   9.992  36.706  0.00  0.00     0.084 A 
HETATM   12  C   UNK N   1      88.597  10.256  35.813  0.00  0.00     0.096 A 
HETATM   13  C   UNK N   1      86.276   9.729  36.227  0.00  0.00     0.085 A 
HETATM   14  C   UNK N   1      88.349  10.267  34.441  0.00  0.00     0.075 A 
HETATM   15  O   UNK N   1      89.880  10.518  36.219  0.00  0.00    -0.306 OA
HETATM   16  C   UNK N   1      87.058  10.025  33.977  0.00  0.00     0.071 A 
HETATM   17  C   UNK N   1      86.018   9.749  34.859  0.00  0.00     0.074 A 
HETATM   18  C   UNK N   1      90.124  10.683  37.574  0.00  0.00     0.124 C 
BRANCH  16  19
HETATM   19  O   UNK N   1      86.849  10.076  32.631  0.00  0.00    -0.361 OA
HETATM   20  H   UNK N   1      85.927  10.341  32.471  0.00  0.00     0.217 HD
ENDBRANCH  16  19
BRANCH  18  21
HETATM   21  C   UNK N   1      91.491  11.158  37.859  0.00  0.00     0.004 A 
HETATM   22  C   UNK N   1      91.838  12.510  37.707  0.00  0.00     0.053 A 
HETATM   23  C   UNK N   1      93.136  12.923  37.977  0.00  0.00     0.099 A 
HETATM   24  C   UNK N   1      94.087  12.017  38.437  0.00  0.00     0.098 A 
HETATM   25  C   UNK N   1      93.768  10.677  38.585  0.00  0.00     0.040 A 
HETATM   26  C   UNK N   1      92.468  10.248  38.298  0.00  0.00     0.017 A 
BRANCH  23  27
HETATM   27  O   UNK N   1      93.472  14.228  37.755  0.00  0.00    -0.358 OA
HETATM   28  H   UNK N   1      93.180  14.722  38.543  0.00  0.00     0.218 HD
ENDBRANCH  23  27
BRANCH  24  29
HETATM   29  O   UNK N   1      95.338  12.441  38.778  0.00  0.00    -0.358 OA
HETATM   30  H   UNK N   1      95.265  12.791  39.685  0.00  0.00     0.218 HD
ENDBRANCH  24  29
ENDBRANCH  18  21
BRANCH  13  31
HETATM   31  O   UNK N   1      85.214   9.463  37.052  0.00  0.00    -0.360 OA
HETATM   32  H   UNK N   1      84.758   8.662  36.706  0.00  0.00     0.217 HD
ENDBRANCH  13  31
ENDBRANCH   7   8
ENDBRANCH   1   7
BRANCH   3  33
HETATM   33  O   UNK N   1      86.963  11.360  41.083  0.00  0.00    -0.388 OA
HETATM   34  H   UNK N   1      86.257  11.765  41.626  0.00  0.00     0.210 HD
ENDBRANCH   3  33
BRANCH   4  35
HETATM   35  C   UNK N   1      91.323  14.986  41.184  0.00  0.00     0.205 C 
BRANCH  35  36
HETATM   36  O   UNK N   1      92.041  14.289  42.216  0.00  0.00    -0.356 OA
BRANCH  36  37
HETATM   37  C   UNK N   1      92.933  15.159  42.916  0.00  0.00     0.291 C 
HETATM   38  O   UNK N   1      93.750  14.421  43.833  0.00  0.00    -0.351 OA
HETATM   39  C   UNK N   1      93.014  13.805  44.892  0.00  0.00     0.152 C 
HETATM   40  C   UNK N   1      92.244  14.848  45.715  0.00  0.00     0.178 C 
HETATM   41  C   UNK N   1      94.009  13.041  45.759  0.00  0.00     0.042 C 
HETATM   42  C   UNK N   1      91.337  15.678  44.800  0.00  0.00     0.183 C 
HETATM   43  C   UNK N   1      92.121  16.262  43.627  0.00  0.00     0.204 C 
BRANCH  40  44
HETATM   44  O   UNK N   1      91.430  14.249  46.734  0.00  0.00    -0.390 OA
HETATM   45  H   UNK N   1      92.022  13.819  47.380  0.00  0.00     0.210 HD
ENDBRANCH  40  44
BRANCH  42  46
HETATM   46  O   UNK N   1      90.749  16.749  45.566  0.00  0.00    -0.390 OA
HETATM   47  H   UNK N   1      89.894  16.936  45.124  0.00  0.00     0.210 HD
ENDBRANCH  42  46
BRANCH  43  48
HETATM   48  O   UNK N   1      92.982  17.306  44.114  0.00  0.00    -0.388 OA
HETATM   49  H   UNK N   1      92.793  18.073  43.535  0.00  0.00     0.210 HD
ENDBRANCH  43  48
ENDBRANCH  36  37
ENDBRANCH  35  36
ENDBRANCH   4  35
BRANCH   5  50
HETATM   50  O   UNK N   1      87.001  13.447  43.041  0.00  0.00    -0.390 OA
HETATM   51  H   UNK N   1      87.119  12.544  43.404  0.00  0.00     0.210 HD
ENDBRANCH   5  50
BRANCH   6  52
HETATM   52  O   UNK N   1      88.666  15.668  42.386  0.00  0.00    -0.390 OA
HETATM   53  H   UNK N   1      87.776  15.602  42.792  0.00  0.00     0.210 HD
ENDBRANCH   6  52
TORSDOF 16
ENDMDL
MODEL 7
REMARK VINA RESULT:      -8.6     11.381     15.769
REMARK  16 active torsions:
REMARK  status: ('A' for Active; 'I' for Inactive)
REMARK    1  A    between atoms: C_3  and  O_5 
REMARK    2  A    between atoms: O_5  and  C_9 
REMARK    3  A    between atoms: C_6  and  C_11 
REMARK    4  A    between atoms: C_8  and  O_13 
REMARK    5  A    between atoms: C_16  and  O_21 
REMARK    6  A    between atoms: C_19  and  O_25 
REMARK    7  A    between atoms: C_20  and  C_27 
REMARK    8  A    between atoms: C_22  and  O_28 
REMARK    9  A    between atoms: C_23  and  O_29 
REMARK   10  A    between atoms: C_26  and  O_31 
REMARK   11  A    between atoms: C_27  and  O_32 
REMARK   12  A    between atoms: C_30  and  O_33 
REMARK   13  A    between atoms: O_32  and  C_34 
REMARK   14  A    between atoms: C_36  and  O_38 
REMARK   15  A    between atoms: C_39  and  O_42 
REMARK   16  A    between atoms: C_40  and  O_43 
ROOT
HETATM    1  C   UNK N   1      90.195  14.270  41.989  0.00  0.00     0.298 C 
HETATM    2  O   UNK N   1      88.780  14.081  42.089  0.00  0.00    -0.348 OA
HETATM    3  C   UNK N   1      90.603  15.479  42.851  0.00  0.00     0.205 C 
HETATM    4  C   UNK N   1      88.372  13.717  43.418  0.00  0.00     0.180 C 
HETATM    5  C   UNK N   1      90.167  15.233  44.296  0.00  0.00     0.183 C 
HETATM    6  C   UNK N   1      88.679  14.872  44.380  0.00  0.00     0.180 C 
ENDROOT
BRANCH   1   7
HETATM    7  O   UNK N   1      90.608  14.555  40.636  0.00  0.00    -0.311 OA
BRANCH   7   8
HETATM    8  C   UNK N   1      90.846  13.399  39.904  0.00  0.00     0.157 C 
HETATM    9  C   UNK N   1      89.835  12.908  38.927  0.00  0.00     0.223 C 
HETATM   10  O   UNK N   1      88.696  13.365  38.854  0.00  0.00    -0.284 OA
HETATM   11  C   UNK N   1      90.254  11.840  38.015  0.00  0.00     0.084 A 
HETATM   12  C   UNK N   1      91.496  11.245  38.218  0.00  0.00     0.096 A 
HETATM   13  C   UNK N   1      89.448  11.428  36.948  0.00  0.00     0.085 A 
HETATM   14  C   UNK N   1      91.939  10.244  37.356  0.00  0.00     0.075 A 
HETATM   15  O   UNK N   1      92.330  11.602  39.245  0.00  0.00    -0.306 OA
HETATM   16  C   UNK N   1      91.137   9.857  36.286  0.00  0.00     0.071 A 
HETATM   17  C   UNK N   1      89.889  10.436  36.077  0.00  0.00     0.074 A 
HETATM   18  C   UNK N   1      91.996  12.706  40.015  0.00  0.00     0.124 C 
BRANCH  16  19
HETATM   19  O   UNK N   1      91.620   8.897  35.446  0.00  0.00    -0.361 OA
HETATM   20  H   UNK N   1      92.406   9.248  34.994  0.00  0.00     0.217 HD
ENDBRANCH  16  19
BRANCH  18  21
HETATM   21  C   UNK N   1      93.069  13.104  40.947  0.00  0.00     0.004 A 
HETATM   22  C   UNK N   1      93.992  14.106  40.608  0.00  0.00     0.053 A 
HETATM   23  C   UNK N   1      94.994  14.452  41.506  0.00  0.00     0.099 A 
HETATM   24  C   UNK N   1      95.067  13.844  42.755  0.00  0.00     0.098 A 
HETATM   25  C   UNK N   1      94.171  12.846  43.105  0.00  0.00     0.040 A 
HETATM   26  C   UNK N   1      93.169  12.479  42.202  0.00  0.00     0.017 A 
BRANCH  23  27
HETATM   27  O   UNK N   1      95.925  15.377  41.129  0.00  0.00    -0.358 OA
HETATM   28  H   UNK N   1      96.581  14.899  40.589  0.00  0.00     0.218 HD
ENDBRANCH  23  27
BRANCH  24  29
HETATM   29  O   UNK N   1      96.003  14.242  43.664  0.00  0.00    -0.358 OA
HETATM   30  H   UNK N   1      96.552  14.908  43.210  0.00  0.00     0.218 HD
ENDBRANCH  24  29
ENDBRANCH  18  21
BRANCH  13  31
HETATM   31  O   UNK N   1      88.217  11.973  36.691  0.00  0.00    -0.360 OA
HETATM   32  H   UNK N   1      87.542  11.269  36.824  0.00  0.00     0.217 HD
ENDBRANCH  13  31
ENDBRANCH   7   8
ENDBRANCH   1   7
BRANCH   3  33
HETATM   33  O   UNK N   1      92.021  15.706  42.838  0.00  0.00    -0.388 OA
HETATM   34  H   UNK N   1      92.298  15.753  43.774  0.00  0.00     0.210 HD
ENDBRANCH   3  33
BRANCH   4  35
HETATM   35  C   UNK N   1      86.871  13.395  43.384  0.00  0.00     0.205 C 
BRANCH  35  36
HETATM   36  O   UNK N   1      86.151  14.486  43.980  0.00  0.00    -0.356 OA
BRANCH  36  37
HETATM   37  C   UNK N   1      84.991  14.032  44.682  0.00  0.00     0.291 C 
HETATM   38  O   UNK N   1      83.794  14.460  44.020  0.00  0.00    -0.351 OA
HETATM   39  C   UNK N   1      83.620  15.879  44.008  0.00  0.00     0.152 C 
HETATM   40  C   UNK N   1      83.573  16.446  45.434  0.00  0.00     0.178 C 
HETATM   41  C   UNK N   1      82.329  16.176  43.252  0.00  0.00     0.042 C 
HETATM   42  C   UNK N   1      84.830  16.034  46.208  0.00  0.00     0.183 C 
HETATM   43  C   UNK N   1      85.049  14.524  46.143  0.00  0.00     0.204 C 
BRANCH  40  44
HETATM   44  O   UNK N   1      83.481  17.878  45.451  0.00  0.00    -0.390 OA
HETATM   45  H   UNK N   1      83.936  18.201  46.251  0.00  0.00     0.210 HD
ENDBRANCH  40  44
BRANCH  42  46
HETATM   46  O   UNK N   1      84.689  16.440  47.585  0.00  0.00    -0.390 OA
HETATM   47  H   UNK N   1      85.530  16.896  47.801  0.00  0.00     0.210 HD
ENDBRANCH  42  46
BRANCH  43  48
HETATM   48  O   UNK N   1      84.052  13.872  46.949  0.00  0.00    -0.388 OA
HETATM   49  H   UNK N   1      83.406  14.577  47.161  0.00  0.00     0.210 HD
ENDBRANCH  43  48
ENDBRANCH  36  37
ENDBRANCH  35  36
ENDBRANCH   4  35
BRANCH   5  50
HETATM   50  O   UNK N   1      90.408  16.403  45.096  0.00  0.00    -0.390 OA
HETATM   51  H   UNK N   1      89.960  17.133  44.620  0.00  0.00     0.210 HD
ENDBRANCH   5  50
BRANCH   6  52
HETATM   52  O   UNK N   1      88.359  14.522  45.726  0.00  0.00    -0.390 OA
HETATM   53  H   UNK N   1      87.415  14.762  45.837  0.00  0.00     0.210 HD
ENDBRANCH   6  52
TORSDOF 16
ENDMDL
MODEL 8
REMARK VINA RESULT:      -8.5     27.020     30.843
REMARK  16 active torsions:
REMARK  status: ('A' for Active; 'I' for Inactive)
REMARK    1  A    between atoms: C_3  and  O_5 
REMARK    2  A    between atoms: O_5  and  C_9 
REMARK    3  A    between atoms: C_6  and  C_11 
REMARK    4  A    between atoms: C_8  and  O_13 
REMARK    5  A    between atoms: C_16  and  O_21 
REMARK    6  A    between atoms: C_19  and  O_25 
REMARK    7  A    between atoms: C_20  and  C_27 
REMARK    8  A    between atoms: C_22  and  O_28 
REMARK    9  A    between atoms: C_23  and  O_29 
REMARK   10  A    between atoms: C_26  and  O_31 
REMARK   11  A    between atoms: C_27  and  O_32 
REMARK   12  A    between atoms: C_30  and  O_33 
REMARK   13  A    between atoms: O_32  and  C_34 
REMARK   14  A    between atoms: C_36  and  O_38 
REMARK   15  A    between atoms: C_39  and  O_42 
REMARK   16  A    between atoms: C_40  and  O_43 
ROOT
HETATM    1  C   UNK N   1      74.749   4.494  13.529  0.00  0.00     0.298 C 
HETATM    2  O   UNK N   1      75.748   5.363  12.985  0.00  0.00    -0.348 OA
HETATM    3  C   UNK N   1      73.741   4.133  12.423  0.00  0.00     0.205 C 
HETATM    4  C   UNK N   1      76.546   4.714  11.982  0.00  0.00     0.180 C 
HETATM    5  C   UNK N   1      74.486   3.477  11.260  0.00  0.00     0.183 C 
HETATM    6  C   UNK N   1      75.659   4.343  10.786  0.00  0.00     0.180 C 
ENDROOT
BRANCH   1   7
HETATM    7  O   UNK N   1      74.005   5.125  14.592  0.00  0.00    -0.311 OA
BRANCH   7   8
HETATM    8  C   UNK N   1      74.207   4.503  15.817  0.00  0.00     0.157 C 
HETATM    9  C   UNK N   1      73.381   3.328  16.207  0.00  0.00     0.223 C 
HETATM   10  O   UNK N   1      72.382   2.973  15.584  0.00  0.00    -0.284 OA
HETATM   11  C   UNK N   1      73.813   2.572  17.386  0.00  0.00     0.084 A 
HETATM   12  C   UNK N   1      74.856   3.080  18.153  0.00  0.00     0.096 A 
HETATM   13  C   UNK N   1      73.215   1.356  17.737  0.00  0.00     0.085 A 
HETATM   14  C   UNK N   1      75.311   2.376  19.267  0.00  0.00     0.075 A 
HETATM   15  O   UNK N   1      75.480   4.266  17.864  0.00  0.00    -0.306 OA
HETATM   16  C   UNK N   1      74.724   1.157  19.594  0.00  0.00     0.071 A 
HETATM   17  C   UNK N   1      73.672   0.642  18.841  0.00  0.00     0.074 A 
HETATM   18  C   UNK N   1      75.169   4.903  16.673  0.00  0.00     0.124 C 
BRANCH  16  19
HETATM   19  O   UNK N   1      75.218   0.483  20.671  0.00  0.00    -0.361 OA
HETATM   20  H   UNK N   1      74.511  -0.077  21.037  0.00  0.00     0.217 HD
ENDBRANCH  16  19
BRANCH  18  21
HETATM   21  C   UNK N   1      76.050   6.051  16.386  0.00  0.00     0.004 A 
HETATM   22  C   UNK N   1      75.542   7.238  15.833  0.00  0.00     0.053 A 
HETATM   23  C   UNK N   1      76.402   8.297  15.569  0.00  0.00     0.099 A 
HETATM   24  C   UNK N   1      77.754   8.209  15.885  0.00  0.00     0.098 A 
HETATM   25  C   UNK N   1      78.276   7.044  16.425  0.00  0.00     0.040 A 
HETATM   26  C   UNK N   1      77.422   5.966  16.677  0.00  0.00     0.017 A 
BRANCH  23  27
HETATM   27  O   UNK N   1      75.902   9.415  14.965  0.00  0.00    -0.358 OA
HETATM   28  H   UNK N   1      75.289   9.820  15.605  0.00  0.00     0.218 HD
ENDBRANCH  23  27
BRANCH  24  29
HETATM   29  O   UNK N   1      78.578   9.280  15.700  0.00  0.00    -0.358 OA
HETATM   30  H   UNK N   1      78.756   9.319  14.742  0.00  0.00     0.218 HD
ENDBRANCH  24  29
ENDBRANCH  18  21
BRANCH  13  31
HETATM   31  O   UNK N   1      72.186   0.799  17.024  0.00  0.00    -0.360 OA
HETATM   32  H   UNK N   1      71.389   1.362  17.156  0.00  0.00     0.217 HD
ENDBRANCH  13  31
ENDBRANCH   7   8
ENDBRANCH   1   7
BRANCH   3  33
HETATM   33  O   UNK N   1      72.728   3.224  12.883  0.00  0.00    -0.388 OA
HETATM   34  H   UNK N   1      73.199   2.420  13.178  0.00  0.00     0.210 HD
ENDBRANCH   3  33
BRANCH   4  35
HETATM   35  C   UNK N   1      77.672   5.674  11.572  0.00  0.00     0.205 C 
BRANCH  35  36
HETATM   36  O   UNK N   1      78.878   4.917  11.381  0.00  0.00    -0.356 OA
BRANCH  36  37
HETATM   37  C   UNK N   1      79.907   5.707  10.780  0.00  0.00     0.291 C 
HETATM   38  O   UNK N   1      81.169   5.033  10.839  0.00  0.00    -0.351 OA
HETATM   39  C   UNK N   1      81.656   4.839  12.169  0.00  0.00     0.152 C 
HETATM   40  C   UNK N   1      81.827   6.180  12.899  0.00  0.00     0.178 C 
HETATM   41  C   UNK N   1      82.981   4.091  12.069  0.00  0.00     0.042 C 
HETATM   42  C   UNK N   1      80.510   6.961  12.884  0.00  0.00     0.183 C 
HETATM   43  C   UNK N   1      79.958   7.088  11.465  0.00  0.00     0.204 C 
BRANCH  40  44
HETATM   44  O   UNK N   1      82.237   6.011  14.265  0.00  0.00    -0.390 OA
HETATM   45  H   UNK N   1      83.055   5.481  14.272  0.00  0.00     0.210 HD
ENDBRANCH  40  44
BRANCH  42  46
HETATM   46  O   UNK N   1      80.736   8.277  13.431  0.00  0.00    -0.390 OA
HETATM   47  H   UNK N   1      80.188   8.311  14.242  0.00  0.00     0.210 HD
ENDBRANCH  42  46
BRANCH  43  48
HETATM   48  O   UNK N   1      80.784   8.004  10.724  0.00  0.00    -0.388 OA
HETATM   49  H   UNK N   1      80.913   8.764  11.327  0.00  0.00     0.210 HD
ENDBRANCH  43  48
ENDBRANCH  36  37
ENDBRANCH  35  36
ENDBRANCH   4  35
BRANCH   5  50
HETATM   50  O   UNK N   1      73.593   3.257  10.156  0.00  0.00    -0.390 OA
HETATM   51  H   UNK N   1      73.203   4.135   9.965  0.00  0.00     0.210 HD
ENDBRANCH   5  50
BRANCH   6  52
HETATM   52  O   UNK N   1      76.398   3.627   9.797  0.00  0.00    -0.390 OA
HETATM   53  H   UNK N   1      75.865   2.827   9.605  0.00  0.00     0.210 HD
ENDBRANCH   6  52
TORSDOF 16
ENDMDL
MODEL 9
REMARK VINA RESULT:      -8.4     14.151     17.092
REMARK  16 active torsions:
REMARK  status: ('A' for Active; 'I' for Inactive)
REMARK    1  A    between atoms: C_3  and  O_5 
REMARK    2  A    between atoms: O_5  and  C_9 
REMARK    3  A    between atoms: C_6  and  C_11 
REMARK    4  A    between atoms: C_8  and  O_13 
REMARK    5  A    between atoms: C_16  and  O_21 
REMARK    6  A    between atoms: C_19  and  O_25 
REMARK    7  A    between atoms: C_20  and  C_27 
REMARK    8  A    between atoms: C_22  and  O_28 
REMARK    9  A    between atoms: C_23  and  O_29 
REMARK   10  A    between atoms: C_26  and  O_31 
REMARK   11  A    between atoms: C_27  and  O_32 
REMARK   12  A    between atoms: C_30  and  O_33 
REMARK   13  A    between atoms: O_32  and  C_34 
REMARK   14  A    between atoms: C_36  and  O_38 
REMARK   15  A    between atoms: C_39  and  O_42 
REMARK   16  A    between atoms: C_40  and  O_43 
ROOT
HETATM    1  C   UNK N   1      90.674  15.411  42.501  0.00  0.00     0.298 C 
HETATM    2  O   UNK N   1      91.294  14.192  42.921  0.00  0.00    -0.348 OA
HETATM    3  C   UNK N   1      91.002  16.519  43.520  0.00  0.00     0.205 C 
HETATM    4  C   UNK N   1      92.729  14.275  42.899  0.00  0.00     0.180 C 
HETATM    5  C   UNK N   1      92.520  16.666  43.629  0.00  0.00     0.183 C 
HETATM    6  C   UNK N   1      93.195  15.321  43.921  0.00  0.00     0.180 C 
ENDROOT
BRANCH   1   7
HETATM    7  O   UNK N   1      89.238  15.296  42.447  0.00  0.00    -0.311 OA
BRANCH   7   8
HETATM    8  C   UNK N   1      88.822  14.316  41.554  0.00  0.00     0.157 C 
HETATM    9  C   UNK N   1      89.453  14.208  40.211  0.00  0.00     0.223 C 
HETATM   10  O   UNK N   1      90.209  15.063  39.754  0.00  0.00    -0.284 OA
HETATM   11  C   UNK N   1      89.149  13.008  39.426  0.00  0.00     0.084 A 
HETATM   12  C   UNK N   1      88.179  12.133  39.905  0.00  0.00     0.096 A 
HETATM   13  C   UNK N   1      89.821  12.722  38.233  0.00  0.00     0.085 A 
HETATM   14  C   UNK N   1      87.881  10.968  39.200  0.00  0.00     0.075 A 
HETATM   15  O   UNK N   1      87.484  12.357  41.065  0.00  0.00    -0.306 OA
HETATM   16  C   UNK N   1      88.571  10.683  38.024  0.00  0.00     0.071 A 
HETATM   17  C   UNK N   1      89.536  11.556  37.529  0.00  0.00     0.074 A 
HETATM   18  C   UNK N   1      87.874  13.414  41.875  0.00  0.00     0.124 C 
BRANCH  16  19
HETATM   19  O   UNK N   1      88.273   9.519  37.380  0.00  0.00    -0.361 OA
HETATM   20  H   UNK N   1      87.618   9.708  36.686  0.00  0.00     0.217 HD
ENDBRANCH  16  19
BRANCH  18  21
HETATM   21  C   UNK N   1      87.186  13.423  43.180  0.00  0.00     0.004 A 
HETATM   22  C   UNK N   1      87.874  13.735  44.363  0.00  0.00     0.053 A 
HETATM   23  C   UNK N   1      87.197  13.727  45.576  0.00  0.00     0.099 A 
HETATM   24  C   UNK N   1      85.834  13.453  45.626  0.00  0.00     0.098 A 
HETATM   25  C   UNK N   1      85.138  13.134  44.470  0.00  0.00     0.040 A 
HETATM   26  C   UNK N   1      85.814  13.122  43.247  0.00  0.00     0.017 A 
BRANCH  23  27
HETATM   27  O   UNK N   1      87.900  13.963  46.723  0.00  0.00    -0.358 OA
HETATM   28  H   UNK N   1      87.268  13.851  47.457  0.00  0.00     0.218 HD
ENDBRANCH  23  27
BRANCH  24  29
HETATM   29  O   UNK N   1      85.157  13.526  46.808  0.00  0.00    -0.358 OA
HETATM   30  H   UNK N   1      85.825  13.735  47.487  0.00  0.00     0.218 HD
ENDBRANCH  24  29
ENDBRANCH  18  21
BRANCH  13  31
HETATM   31  O   UNK N   1      90.787  13.540  37.708  0.00  0.00    -0.360 OA
HETATM   32  H   UNK N   1      91.344  12.998  37.104  0.00  0.00     0.217 HD
ENDBRANCH  13  31
ENDBRANCH   7   8
ENDBRANCH   1   7
BRANCH   3  33
HETATM   33  O   UNK N   1      90.449  17.789  43.142  0.00  0.00    -0.388 OA
HETATM   34  H   UNK N   1      91.210  18.390  43.017  0.00  0.00     0.210 HD
ENDBRANCH   3  33
BRANCH   4  35
HETATM   35  C   UNK N   1      93.293  12.883  43.220  0.00  0.00     0.205 C 
BRANCH  35  36
HETATM   36  O   UNK N   1      94.624  12.789  42.687  0.00  0.00    -0.356 OA
BRANCH  36  37
HETATM   37  C   UNK N   1      94.664  13.150  41.304  0.00  0.00     0.291 C 
HETATM   38  O   UNK N   1      94.545  11.991  40.471  0.00  0.00    -0.351 OA
HETATM   39  C   UNK N   1      95.641  11.081  40.592  0.00  0.00     0.152 C 
HETATM   40  C   UNK N   1      96.971  11.759  40.231  0.00  0.00     0.178 C 
HETATM   41  C   UNK N   1      95.357   9.897  39.673  0.00  0.00     0.042 C 
HETATM   42  C   UNK N   1      97.174  13.011  41.090  0.00  0.00     0.183 C 
HETATM   43  C   UNK N   1      95.961  13.936  41.017  0.00  0.00     0.204 C 
BRANCH  40  44
HETATM   44  O   UNK N   1      98.098  10.892  40.423  0.00  0.00    -0.390 OA
HETATM   45  H   UNK N   1      98.722  11.335  41.027  0.00  0.00     0.210 HD
ENDBRANCH  40  44
BRANCH  42  46
HETATM   46  O   UNK N   1      98.344  13.717  40.626  0.00  0.00    -0.390 OA
HETATM   47  H   UNK N   1      98.679  13.184  39.875  0.00  0.00     0.210 HD
ENDBRANCH  42  46
BRANCH  43  48
HETATM   48  O   UNK N   1      95.917  14.548  39.716  0.00  0.00    -0.388 OA
HETATM   49  H   UNK N   1      95.181  14.096  39.255  0.00  0.00     0.210 HD
ENDBRANCH  43  48
ENDBRANCH  36  37
ENDBRANCH  35  36
ENDBRANCH   4  35
BRANCH   5  50
HETATM   50  O   UNK N   1      92.858  17.594  44.673  0.00  0.00    -0.390 OA
HETATM   51  H   UNK N   1      92.194  18.310  44.601  0.00  0.00     0.210 HD
ENDBRANCH   5  50
BRANCH   6  52
HETATM   52  O   UNK N   1      94.612  15.489  43.878  0.00  0.00    -0.390 OA
HETATM   53  H   UNK N   1      94.851  15.421  42.930  0.00  0.00     0.210 HD
ENDBRANCH   6  52
TORSDOF 16
ENDMDL
