MODEL 1
REMARK VINA RESULT:      -8.3      0.000      0.000
REMARK  7 active torsions:
REMARK  status: ('A' for Active; 'I' for Inactive)
REMARK    1  A    between atoms: C_5  and  C_8 
REMARK    2  A    between atoms: C_8  and  O_9 
REMARK    3  A    between atoms: O_9  and  C_10 
REMARK    4  A    between atoms: C_15  and  C_16 
REMARK    5  A    between atoms: C_16  and  N_17 
REMARK    6  A    between atoms: N_17  and  C_18 
REMARK    7  A    between atoms: C_18  and  C_19 
REMARK       I    between atoms: C_19  and  N_22 
ROOT
HETATM    1  C   UNK N   1      91.343  13.275  39.821  0.00  0.00     0.069 A 
HETATM    2  C   UNK N   1      90.850  14.561  39.602  0.00  0.00     0.037 A 
HETATM    3  C   UNK N   1      91.275  12.728  41.104  0.00  0.00     0.037 A 
HETATM    4  C   UNK N   1      90.295  15.292  40.659  0.00  0.00     0.011 A 
HETATM    5  C   UNK N   1      90.722  13.456  42.160  0.00  0.00     0.011 A 
HETATM    6  C   UNK N   1      90.225  14.747  41.949  0.00  0.00    -0.030 A 
ENDROOT
BRANCH   6   7
HETATM    7  C   UNK N   1      89.633  15.537  43.091  0.00  0.00     0.309 C 
BRANCH   7   8
HETATM    8  N   UNK N   1      90.036  16.943  43.088  0.00  0.00     0.101 N 
HETATM    9  H   UNK N   1      90.438  17.170  42.177  0.00  0.00     0.317 HD
BRANCH   8  10
HETATM   10  C   UNK N   1      91.043  17.281  44.127  0.00  0.00     0.307 C 
HETATM   11  C   UNK N   1      92.420  16.688  43.830  0.00  0.00     0.053 C 
BRANCH  10  12
HETATM   12  C   UNK N   1      91.136  18.821  44.228  0.00  0.00     0.248 C 
HETATM   13  O   UNK N   1      91.260  19.581  43.274  0.00  0.00    -0.271 OA
HETATM   14  N   UNK N   1      91.122  19.298  45.510  0.00  0.00    -0.368 N 
HETATM   15  H   UNK N   1      91.191  20.291  45.676  0.00  0.00     0.159 HD
HETATM   16  H   UNK N   1      90.948  18.652  46.271  0.00  0.00     0.159 HD
ENDBRANCH  10  12
ENDBRANCH   8  10
ENDBRANCH   7   8
ENDBRANCH   6   7
BRANCH   1  17
HETATM   17  O   UNK N   1      91.907  12.456  38.884  0.00  0.00    -0.347 OA
BRANCH  17  18
HETATM   18  C   UNK N   1      92.955  13.005  38.085  0.00  0.00     0.214 C 
BRANCH  18  19
HETATM   19  C   UNK N   1      94.261  12.829  38.822  0.00  0.00    -0.031 A 
HETATM   20  C   UNK N   1      94.989  11.635  38.718  0.00  0.00     0.051 A 
HETATM   21  C   UNK N   1      96.185  11.490  39.414  0.00  0.00     0.117 A 
HETATM   22  F   UNK N   1      96.871  10.345  39.308  0.00  0.00    -0.206 F 
HETATM   23  C   UNK N   1      96.677  12.510  40.219  0.00  0.00     0.042 A 
HETATM   24  C   UNK N   1      95.963  13.700  40.331  0.00  0.00     0.004 A 
HETATM   25  C   UNK N   1      94.761  13.859  39.636  0.00  0.00     0.009 A 
ENDBRANCH  18  19
ENDBRANCH  17  18
ENDBRANCH   1  17
TORSDOF 7
ENDMDL
MODEL 2
REMARK VINA RESULT:      -8.1     12.588     13.867
REMARK  7 active torsions:
REMARK  status: ('A' for Active; 'I' for Inactive)
REMARK    1  A    between atoms: C_5  and  C_8 
REMARK    2  A    between atoms: C_8  and  O_9 
REMARK    3  A    between atoms: O_9  and  C_10 
REMARK    4  A    between atoms: C_15  and  C_16 
REMARK    5  A    between atoms: C_16  and  N_17 
REMARK    6  A    between atoms: N_17  and  C_18 
REMARK    7  A    between atoms: C_18  and  C_19 
REMARK       I    between atoms: C_19  and  N_22 
ROOT
HETATM    1  C   UNK N   1      81.536  23.155  38.090  0.00  0.00     0.069 A 
HETATM    2  C   UNK N   1      80.660  23.931  38.846  0.00  0.00     0.037 A 
HETATM    3  C   UNK N   1      81.801  21.843  38.487  0.00  0.00     0.037 A 
HETATM    4  C   UNK N   1      80.054  23.398  39.990  0.00  0.00     0.011 A 
HETATM    5  C   UNK N   1      81.199  21.309  39.629  0.00  0.00     0.011 A 
HETATM    6  C   UNK N   1      80.317  22.082  40.394  0.00  0.00    -0.030 A 
ENDROOT
BRANCH   6   7
HETATM    7  C   UNK N   1      79.670  21.508  41.631  0.00  0.00     0.309 C 
BRANCH   7   8
HETATM    8  N   UNK N   1      80.248  22.022  42.873  0.00  0.00     0.101 N 
HETATM    9  H   UNK N   1      80.408  23.025  42.772  0.00  0.00     0.317 HD
BRANCH   8  10
HETATM   10  C   UNK N   1      81.540  21.387  43.241  0.00  0.00     0.307 C 
HETATM   11  C   UNK N   1      82.122  21.944  44.540  0.00  0.00     0.053 C 
BRANCH  10  12
HETATM   12  C   UNK N   1      81.309  19.863  43.370  0.00  0.00     0.248 C 
HETATM   13  O   UNK N   1      80.588  19.331  44.206  0.00  0.00    -0.271 OA
HETATM   14  N   UNK N   1      82.034  19.113  42.486  0.00  0.00    -0.368 N 
HETATM   15  H   UNK N   1      81.959  18.107  42.502  0.00  0.00     0.159 HD
HETATM   16  H   UNK N   1      82.565  19.584  41.763  0.00  0.00     0.159 HD
ENDBRANCH  10  12
ENDBRANCH   8  10
ENDBRANCH   7   8
ENDBRANCH   6   7
BRANCH   1  17
HETATM   17  O   UNK N   1      82.192  23.548  36.957  0.00  0.00    -0.347 OA
BRANCH  17  18
HETATM   18  C   UNK N   1      82.582  24.918  36.873  0.00  0.00     0.214 C 
BRANCH  18  19
HETATM   19  C   UNK N   1      83.814  25.118  37.723  0.00  0.00    -0.031 A 
HETATM   20  C   UNK N   1      84.803  24.128  37.798  0.00  0.00     0.051 A 
HETATM   21  C   UNK N   1      85.926  24.328  38.597  0.00  0.00     0.117 A 
HETATM   22  F   UNK N   1      86.863  23.374  38.661  0.00  0.00    -0.206 F 
HETATM   23  C   UNK N   1      86.088  25.498  39.329  0.00  0.00     0.042 A 
HETATM   24  C   UNK N   1      85.112  26.489  39.262  0.00  0.00     0.004 A 
HETATM   25  C   UNK N   1      83.981  26.301  38.464  0.00  0.00     0.009 A 
ENDBRANCH  18  19
ENDBRANCH  17  18
ENDBRANCH   1  17
TORSDOF 7
ENDMDL
MODEL 3
REMARK VINA RESULT:      -7.8     14.749     17.361
REMARK  7 active torsions:
REMARK  status: ('A' for Active; 'I' for Inactive)
REMARK    1  A    between atoms: C_5  and  C_8 
REMARK    2  A    between atoms: C_8  and  O_9 
REMARK    3  A    between atoms: O_9  and  C_10 
REMARK    4  A    between atoms: C_15  and  C_16 
REMARK    5  A    between atoms: C_16  and  N_17 
REMARK    6  A    between atoms: N_17  and  C_18 
REMARK    7  A    between atoms: C_18  and  C_19 
REMARK       I    between atoms: C_19  and  N_22 
ROOT
HETATM    1  C   UNK N   1      84.644  27.556  39.370  0.00  0.00     0.069 A 
HETATM    2  C   UNK N   1      83.503  27.992  38.697  0.00  0.00     0.037 A 
HETATM    3  C   UNK N   1      85.102  26.254  39.161  0.00  0.00     0.037 A 
HETATM    4  C   UNK N   1      82.828  27.131  37.824  0.00  0.00     0.011 A 
HETATM    5  C   UNK N   1      84.430  25.393  38.290  0.00  0.00     0.011 A 
HETATM    6  C   UNK N   1      83.284  25.823  37.611  0.00  0.00    -0.030 A 
ENDROOT
BRANCH   6   7
HETATM    7  C   UNK N   1      82.553  24.892  36.674  0.00  0.00     0.309 C 
BRANCH   7   8
HETATM    8  N   UNK N   1      82.364  23.551  37.229  0.00  0.00     0.101 N 
HETATM    9  H   UNK N   1      82.134  22.909  36.469  0.00  0.00     0.317 HD
BRANCH   8  10
HETATM   10  C   UNK N   1      81.279  23.469  38.241  0.00  0.00     0.307 C 
HETATM   11  C   UNK N   1      79.972  24.096  37.758  0.00  0.00     0.053 C 
BRANCH  10  12
HETATM   12  C   UNK N   1      81.058  21.979  38.592  0.00  0.00     0.248 C 
HETATM   13  O   UNK N   1      79.963  21.444  38.727  0.00  0.00    -0.271 OA
HETATM   14  N   UNK N   1      82.214  21.278  38.802  0.00  0.00    -0.368 N 
HETATM   15  H   UNK N   1      82.170  20.301  39.049  0.00  0.00     0.159 HD
HETATM   16  H   UNK N   1      83.101  21.730  38.614  0.00  0.00     0.159 HD
ENDBRANCH  10  12
ENDBRANCH   8  10
ENDBRANCH   7   8
ENDBRANCH   6   7
BRANCH   1  17
HETATM   17  O   UNK N   1      85.395  28.289  40.246  0.00  0.00    -0.347 OA
BRANCH  17  18
HETATM   18  C   UNK N   1      85.191  29.701  40.255  0.00  0.00     0.214 C 
BRANCH  18  19
HETATM   19  C   UNK N   1      84.356  30.057  41.461  0.00  0.00    -0.031 A 
HETATM   20  C   UNK N   1      84.067  31.394  41.765  0.00  0.00     0.051 A 
HETATM   21  C   UNK N   1      83.305  31.701  42.889  0.00  0.00     0.117 A 
HETATM   22  F   UNK N   1      83.036  32.982  43.170  0.00  0.00    -0.206 F 
HETATM   23  C   UNK N   1      82.821  30.701  43.724  0.00  0.00     0.042 A 
HETATM   24  C   UNK N   1      83.102  29.369  43.433  0.00  0.00     0.004 A 
HETATM   25  C   UNK N   1      83.865  29.048  42.308  0.00  0.00     0.009 A 
ENDBRANCH  18  19
ENDBRANCH  17  18
ENDBRANCH   1  17
TORSDOF 7
ENDMDL
MODEL 4
REMARK VINA RESULT:      -7.6     14.888     17.177
REMARK  7 active torsions:
REMARK  status: ('A' for Active; 'I' for Inactive)
REMARK    1  A    between atoms: C_5  and  C_8 
REMARK    2  A    between atoms: C_8  and  O_9 
REMARK    3  A    between atoms: O_9  and  C_10 
REMARK    4  A    between atoms: C_15  and  C_16 
REMARK    5  A    between atoms: C_16  and  N_17 
REMARK    6  A    between atoms: N_17  and  C_18 
REMARK    7  A    between atoms: C_18  and  C_19 
REMARK       I    between atoms: C_19  and  N_22 
ROOT
HETATM    1  C   UNK N   1      83.699  27.319  38.265  0.00  0.00     0.069 A 
HETATM    2  C   UNK N   1      83.984  25.954  38.273  0.00  0.00     0.037 A 
HETATM    3  C   UNK N   1      82.560  27.773  37.599  0.00  0.00     0.037 A 
HETATM    4  C   UNK N   1      83.134  25.053  37.619  0.00  0.00     0.011 A 
HETATM    5  C   UNK N   1      81.710  26.877  36.946  0.00  0.00     0.011 A 
HETATM    6  C   UNK N   1      81.989  25.505  36.950  0.00  0.00    -0.030 A 
ENDROOT
BRANCH   6   7
HETATM    7  C   UNK N   1      81.075  24.535  36.240  0.00  0.00     0.309 C 
BRANCH   7   8
HETATM    8  N   UNK N   1      81.407  23.135  36.503  0.00  0.00     0.101 N 
HETATM    9  H   UNK N   1      81.481  22.640  35.614  0.00  0.00     0.317 HD
BRANCH   8  10
HETATM   10  C   UNK N   1      80.401  22.428  37.338  0.00  0.00     0.307 C 
HETATM   11  C   UNK N   1      79.963  21.096  36.731  0.00  0.00     0.053 C 
BRANCH  10  12
HETATM   12  C   UNK N   1      81.013  22.199  38.740  0.00  0.00     0.248 C 
HETATM   13  O   UNK N   1      80.656  22.772  39.764  0.00  0.00    -0.271 OA
HETATM   14  N   UNK N   1      82.056  21.315  38.756  0.00  0.00    -0.368 N 
HETATM   15  H   UNK N   1      82.528  21.111  39.624  0.00  0.00     0.159 HD
HETATM   16  H   UNK N   1      82.280  20.806  37.909  0.00  0.00     0.159 HD
ENDBRANCH  10  12
ENDBRANCH   8  10
ENDBRANCH   7   8
ENDBRANCH   6   7
BRANCH   1  17
HETATM   17  O   UNK N   1      84.440  28.302  38.859  0.00  0.00    -0.347 OA
BRANCH  17  18
HETATM   18  C   UNK N   1      84.892  28.061  40.191  0.00  0.00     0.214 C 
BRANCH  18  19
HETATM   19  C   UNK N   1      84.440  29.206  41.065  0.00  0.00    -0.031 A 
HETATM   20  C   UNK N   1      83.783  28.967  42.279  0.00  0.00     0.051 A 
HETATM   21  C   UNK N   1      83.364  30.038  43.064  0.00  0.00     0.117 A 
HETATM   22  F   UNK N   1      82.736  29.796  44.221  0.00  0.00    -0.206 F 
HETATM   23  C   UNK N   1      83.585  31.350  42.666  0.00  0.00     0.042 A 
HETATM   24  C   UNK N   1      84.237  31.601  41.462  0.00  0.00     0.004 A 
HETATM   25  C   UNK N   1      84.663  30.535  40.665  0.00  0.00     0.009 A 
ENDBRANCH  18  19
ENDBRANCH  17  18
ENDBRANCH   1  17
TORSDOF 7
ENDMDL
MODEL 5
REMARK VINA RESULT:      -7.6      1.251      1.373
REMARK  7 active torsions:
REMARK  status: ('A' for Active; 'I' for Inactive)
REMARK    1  A    between atoms: C_5  and  C_8 
REMARK    2  A    between atoms: C_8  and  O_9 
REMARK    3  A    between atoms: O_9  and  C_10 
REMARK    4  A    between atoms: C_15  and  C_16 
REMARK    5  A    between atoms: C_16  and  N_17 
REMARK    6  A    between atoms: N_17  and  C_18 
REMARK    7  A    between atoms: C_18  and  C_19 
REMARK       I    between atoms: C_19  and  N_22 
ROOT
HETATM    1  C   UNK N   1      90.998  13.329  39.648  0.00  0.00     0.069 A 
HETATM    2  C   UNK N   1      91.091  14.719  39.698  0.00  0.00     0.037 A 
HETATM    3  C   UNK N   1      90.301  12.656  40.653  0.00  0.00     0.037 A 
HETATM    4  C   UNK N   1      90.492  15.428  40.746  0.00  0.00     0.011 A 
HETATM    5  C   UNK N   1      89.702  13.360  41.700  0.00  0.00     0.011 A 
HETATM    6  C   UNK N   1      89.791  14.756  41.757  0.00  0.00    -0.030 A 
ENDROOT
BRANCH   6   7
HETATM    7  C   UNK N   1      89.150  15.519  42.892  0.00  0.00     0.309 C 
BRANCH   7   8
HETATM    8  N   UNK N   1      89.851  16.762  43.217  0.00  0.00     0.101 N 
HETATM    9  H   UNK N   1      90.404  17.050  42.410  0.00  0.00     0.317 HD
BRANCH   8  10
HETATM   10  C   UNK N   1      90.766  16.646  44.382  0.00  0.00     0.307 C 
HETATM   11  C   UNK N   1      90.614  15.318  45.122  0.00  0.00     0.053 C 
BRANCH  10  12
HETATM   12  C   UNK N   1      92.218  16.810  43.873  0.00  0.00     0.248 C 
HETATM   13  O   UNK N   1      92.911  15.905  43.423  0.00  0.00    -0.271 OA
HETATM   14  N   UNK N   1      92.717  18.076  44.011  0.00  0.00    -0.368 N 
HETATM   15  H   UNK N   1      93.662  18.277  43.718  0.00  0.00     0.159 HD
HETATM   16  H   UNK N   1      92.098  18.816  44.320  0.00  0.00     0.159 HD
ENDBRANCH  10  12
ENDBRANCH   8  10
ENDBRANCH   7   8
ENDBRANCH   6   7
BRANCH   1  17
HETATM   17  O   UNK N   1      91.532  12.517  38.687  0.00  0.00    -0.347 OA
BRANCH  17  18
HETATM   18  C   UNK N   1      92.595  13.054  37.899  0.00  0.00     0.214 C 
BRANCH  18  19
HETATM   19  C   UNK N   1      93.905  12.718  38.571  0.00  0.00    -0.031 A 
HETATM   20  C   UNK N   1      94.538  11.490  38.336  0.00  0.00     0.051 A 
HETATM   21  C   UNK N   1      95.740  11.196  38.974  0.00  0.00     0.117 A 
HETATM   22  F   UNK N   1      96.335  10.019  38.743  0.00  0.00    -0.206 F 
HETATM   23  C   UNK N   1      96.330  12.101  39.848  0.00  0.00     0.042 A 
HETATM   24  C   UNK N   1      95.711  13.324  40.090  0.00  0.00     0.004 A 
HETATM   25  C   UNK N   1      94.504  13.632  39.455  0.00  0.00     0.009 A 
ENDBRANCH  18  19
ENDBRANCH  17  18
ENDBRANCH   1  17
TORSDOF 7
ENDMDL
MODEL 6
REMARK VINA RESULT:      -7.3     13.553     15.071
REMARK  7 active torsions:
REMARK  status: ('A' for Active; 'I' for Inactive)
REMARK    1  A    between atoms: C_5  and  C_8 
REMARK    2  A    between atoms: C_8  and  O_9 
REMARK    3  A    between atoms: O_9  and  C_10 
REMARK    4  A    between atoms: C_15  and  C_16 
REMARK    5  A    between atoms: C_16  and  N_17 
REMARK    6  A    between atoms: N_17  and  C_18 
REMARK    7  A    between atoms: C_18  and  C_19 
REMARK       I    between atoms: C_19  and  N_22 
ROOT
HETATM    1  C   UNK N   1      80.151  21.947  40.838  0.00  0.00     0.069 A 
HETATM    2  C   UNK N   1      80.989  21.159  40.051  0.00  0.00     0.037 A 
HETATM    3  C   UNK N   1      79.806  23.226  40.398  0.00  0.00     0.037 A 
HETATM    4  C   UNK N   1      81.478  21.649  38.834  0.00  0.00     0.011 A 
HETATM    5  C   UNK N   1      80.292  23.717  39.185  0.00  0.00     0.011 A 
HETATM    6  C   UNK N   1      81.134  22.932  38.388  0.00  0.00    -0.030 A 
ENDROOT
BRANCH   6   7
HETATM    7  C   UNK N   1      81.665  23.464  37.078  0.00  0.00     0.309 C 
BRANCH   7   8
HETATM    8  N   UNK N   1      82.929  24.187  37.222  0.00  0.00     0.101 N 
HETATM    9  H   UNK N   1      83.146  24.279  38.215  0.00  0.00     0.317 HD
BRANCH   8  10
HETATM   10  C   UNK N   1      82.912  25.549  36.629  0.00  0.00     0.307 C 
HETATM   11  C   UNK N   1      81.500  26.120  36.504  0.00  0.00     0.053 C 
BRANCH  10  12
HETATM   12  C   UNK N   1      83.784  26.472  37.513  0.00  0.00     0.248 C 
HETATM   13  O   UNK N   1      83.895  27.684  37.367  0.00  0.00    -0.271 OA
HETATM   14  N   UNK N   1      84.493  25.812  38.478  0.00  0.00    -0.368 N 
HETATM   15  H   UNK N   1      85.100  26.329  39.096  0.00  0.00     0.159 HD
HETATM   16  H   UNK N   1      84.325  24.822  38.619  0.00  0.00     0.159 HD
ENDBRANCH  10  12
ENDBRANCH   8  10
ENDBRANCH   7   8
ENDBRANCH   6   7
BRANCH   1  17
HETATM   17  O   UNK N   1      79.606  21.594  42.041  0.00  0.00    -0.347 OA
BRANCH  17  18
HETATM   18  C   UNK N   1      80.427  20.840  42.932  0.00  0.00     0.214 C 
BRANCH  18  19
HETATM   19  C   UNK N   1      81.178  21.801  43.821  0.00  0.00    -0.031 A 
HETATM   20  C   UNK N   1      82.406  21.441  44.392  0.00  0.00     0.051 A 
HETATM   21  C   UNK N   1      83.077  22.339  45.218  0.00  0.00     0.117 A 
HETATM   22  F   UNK N   1      84.249  21.983  45.759  0.00  0.00    -0.206 F 
HETATM   23  C   UNK N   1      82.550  23.595  45.492  0.00  0.00     0.042 A 
HETATM   24  C   UNK N   1      81.331  23.965  44.930  0.00  0.00     0.004 A 
HETATM   25  C   UNK N   1      80.648  23.073  44.099  0.00  0.00     0.009 A 
ENDBRANCH  18  19
ENDBRANCH  17  18
ENDBRANCH   1  17
TORSDOF 7
ENDMDL
MODEL 7
REMARK VINA RESULT:      -7.3     14.292     17.187
REMARK  7 active torsions:
REMARK  status: ('A' for Active; 'I' for Inactive)
REMARK    1  A    between atoms: C_5  and  C_8 
REMARK    2  A    between atoms: C_8  and  O_9 
REMARK    3  A    between atoms: O_9  and  C_10 
REMARK    4  A    between atoms: C_15  and  C_16 
REMARK    5  A    between atoms: C_16  and  N_17 
REMARK    6  A    between atoms: N_17  and  C_18 
REMARK    7  A    between atoms: C_18  and  C_19 
REMARK       I    between atoms: C_19  and  N_22 
ROOT
HETATM    1  C   UNK N   1      98.935   7.361  26.513  0.00  0.00     0.069 A 
HETATM    2  C   UNK N   1      99.586   8.327  27.279  0.00  0.00     0.037 A 
HETATM    3  C   UNK N   1      97.781   6.757  27.014  0.00  0.00     0.037 A 
HETATM    4  C   UNK N   1      99.085   8.684  28.537  0.00  0.00     0.011 A 
HETATM    5  C   UNK N   1      97.279   7.111  28.269  0.00  0.00     0.011 A 
HETATM    6  C   UNK N   1      97.926   8.080  29.044  0.00  0.00    -0.030 A 
ENDROOT
BRANCH   6   7
HETATM    7  C   UNK N   1      97.388   8.460  30.403  0.00  0.00     0.309 C 
BRANCH   7   8
HETATM    8  N   UNK N   1      95.994   8.900  30.366  0.00  0.00     0.101 N 
HETATM    9  H   UNK N   1      95.937   9.849  30.736  0.00  0.00     0.317 HD
BRANCH   8  10
HETATM   10  C   UNK N   1      95.074   8.044  31.161  0.00  0.00     0.307 C 
HETATM   11  C   UNK N   1      95.348   8.119  32.662  0.00  0.00     0.053 C 
BRANCH  10  12
HETATM   12  C   UNK N   1      93.623   8.488  30.861  0.00  0.00     0.248 C 
HETATM   13  O   UNK N   1      93.308   9.391  30.094  0.00  0.00    -0.271 OA
HETATM   14  N   UNK N   1      92.674   7.811  31.577  0.00  0.00    -0.368 N 
HETATM   15  H   UNK N   1      91.698   8.039  31.458  0.00  0.00     0.159 HD
HETATM   16  H   UNK N   1      92.960   7.023  32.147  0.00  0.00     0.159 HD
ENDBRANCH  10  12
ENDBRANCH   8  10
ENDBRANCH   7   8
ENDBRANCH   6   7
BRANCH   1  17
HETATM   17  O   UNK N   1      99.314   6.921  25.275  0.00  0.00    -0.347 OA
BRANCH  17  18
HETATM   18  C   UNK N   1      98.288   6.770  24.295  0.00  0.00     0.214 C 
BRANCH  18  19
HETATM   19  C   UNK N   1      98.615   7.659  23.119  0.00  0.00    -0.031 A 
HETATM   20  C   UNK N   1      98.265   7.282  21.816  0.00  0.00     0.051 A 
HETATM   21  C   UNK N   1      98.586   8.111  20.744  0.00  0.00     0.117 A 
HETATM   22  F   UNK N   1      98.247   7.740  19.503  0.00  0.00    -0.206 F 
HETATM   23  C   UNK N   1      99.255   9.313  20.940  0.00  0.00     0.042 A 
HETATM   24  C   UNK N   1      99.608   9.698  22.231  0.00  0.00     0.004 A 
HETATM   25  C   UNK N   1      99.291   8.876  23.315  0.00  0.00     0.009 A 
ENDBRANCH  18  19
ENDBRANCH  17  18
ENDBRANCH   1  17
TORSDOF 7
ENDMDL
MODEL 8
REMARK VINA RESULT:      -7.3      1.538      1.887
REMARK  7 active torsions:
REMARK  status: ('A' for Active; 'I' for Inactive)
REMARK    1  A    between atoms: C_5  and  C_8 
REMARK    2  A    between atoms: C_8  and  O_9 
REMARK    3  A    between atoms: O_9  and  C_10 
REMARK    4  A    between atoms: C_15  and  C_16 
REMARK    5  A    between atoms: C_16  and  N_17 
REMARK    6  A    between atoms: N_17  and  C_18 
REMARK    7  A    between atoms: C_18  and  C_19 
REMARK       I    between atoms: C_19  and  N_22 
ROOT
HETATM    1  C   UNK N   1      93.140  13.801  39.415  0.00  0.00     0.069 A 
HETATM    2  C   UNK N   1      91.828  13.977  38.977  0.00  0.00     0.037 A 
HETATM    3  C   UNK N   1      93.449  14.036  40.755  0.00  0.00     0.037 A 
HETATM    4  C   UNK N   1      90.834  14.385  39.876  0.00  0.00     0.011 A 
HETATM    5  C   UNK N   1      92.460  14.444  41.654  0.00  0.00     0.011 A 
HETATM    6  C   UNK N   1      91.140  14.623  41.223  0.00  0.00    -0.030 A 
ENDROOT
BRANCH   6   7
HETATM    7  C   UNK N   1      90.071  15.069  42.191  0.00  0.00     0.309 C 
BRANCH   7   8
HETATM    8  N   UNK N   1      90.065  16.515  42.413  0.00  0.00     0.101 N 
HETATM    9  H   UNK N   1      90.828  16.934  41.881  0.00  0.00     0.317 HD
BRANCH   8  10
HETATM   10  C   UNK N   1      90.234  16.904  43.838  0.00  0.00     0.307 C 
HETATM   11  C   UNK N   1      90.841  15.788  44.686  0.00  0.00     0.053 C 
BRANCH  10  12
HETATM   12  C   UNK N   1      91.130  18.163  43.892  0.00  0.00     0.248 C 
HETATM   13  O   UNK N   1      92.336  18.158  44.113  0.00  0.00    -0.271 OA
HETATM   14  N   UNK N   1      90.452  19.338  43.720  0.00  0.00    -0.368 N 
HETATM   15  H   UNK N   1      90.951  20.215  43.752  0.00  0.00     0.159 HD
HETATM   16  H   UNK N   1      89.470  19.305  43.469  0.00  0.00     0.159 HD
ENDBRANCH  10  12
ENDBRANCH   8  10
ENDBRANCH   7   8
ENDBRANCH   6   7
BRANCH   1  17
HETATM   17  O   UNK N   1      94.201  13.408  38.648  0.00  0.00    -0.347 OA
BRANCH  17  18
HETATM   18  C   UNK N   1      94.228  12.046  38.224  0.00  0.00     0.214 C 
BRANCH  18  19
HETATM   19  C   UNK N   1      95.372  11.350  38.921  0.00  0.00    -0.031 A 
HETATM   20  C   UNK N   1      95.613   9.984  38.718  0.00  0.00     0.051 A 
HETATM   21  C   UNK N   1      96.667   9.360  39.379  0.00  0.00     0.117 A 
HETATM   22  F   UNK N   1      96.887   8.054  39.178  0.00  0.00    -0.206 F 
HETATM   23  C   UNK N   1      97.492  10.067  40.246  0.00  0.00     0.042 A 
HETATM   24  C   UNK N   1      97.262  11.424  40.456  0.00  0.00     0.004 A 
HETATM   25  C   UNK N   1      96.208  12.063  39.798  0.00  0.00     0.009 A 
ENDBRANCH  18  19
ENDBRANCH  17  18
ENDBRANCH   1  17
TORSDOF 7
ENDMDL
MODEL 9
REMARK VINA RESULT:      -7.2      1.870      2.541
REMARK  7 active torsions:
REMARK  status: ('A' for Active; 'I' for Inactive)
REMARK    1  A    between atoms: C_5  and  C_8 
REMARK    2  A    between atoms: C_8  and  O_9 
REMARK    3  A    between atoms: O_9  and  C_10 
REMARK    4  A    between atoms: C_15  and  C_16 
REMARK    5  A    between atoms: C_16  and  N_17 
REMARK    6  A    between atoms: N_17  and  C_18 
REMARK    7  A    between atoms: C_18  and  C_19 
REMARK       I    between atoms: C_19  and  N_22 
ROOT
HETATM    1  C   UNK N   1      93.375  13.828  39.231  0.00  0.00     0.069 A 
HETATM    2  C   UNK N   1      92.239  14.200  38.514  0.00  0.00     0.037 A 
HETATM    3  C   UNK N   1      93.335  13.839  40.626  0.00  0.00     0.037 A 
HETATM    4  C   UNK N   1      91.073  14.579  39.190  0.00  0.00     0.011 A 
HETATM    5  C   UNK N   1      92.174  14.217  41.303  0.00  0.00     0.011 A 
HETATM    6  C   UNK N   1      91.028  14.592  40.591  0.00  0.00    -0.030 A 
ENDROOT
BRANCH   6   7
HETATM    7  C   UNK N   1      89.773  15.007  41.320  0.00  0.00     0.309 C 
BRANCH   7   8
HETATM    8  N   UNK N   1      89.964  16.186  42.166  0.00  0.00     0.101 N 
HETATM    9  H   UNK N   1      90.955  16.426  42.179  0.00  0.00     0.317 HD
BRANCH   8  10
HETATM   10  C   UNK N   1      89.521  15.993  43.571  0.00  0.00     0.307 C 
HETATM   11  C   UNK N   1      89.047  14.568  43.851  0.00  0.00     0.053 C 
BRANCH  10  12
HETATM   12  C   UNK N   1      90.702  16.355  44.503  0.00  0.00     0.248 C 
HETATM   13  O   UNK N   1      90.675  16.295  45.727  0.00  0.00    -0.271 OA
HETATM   14  N   UNK N   1      91.809  16.816  43.846  0.00  0.00    -0.368 N 
HETATM   15  H   UNK N   1      92.627  17.089  44.371  0.00  0.00     0.159 HD
HETATM   16  H   UNK N   1      91.826  16.787  42.833  0.00  0.00     0.159 HD
ENDBRANCH  10  12
ENDBRANCH   8  10
ENDBRANCH   7   8
ENDBRANCH   6   7
BRANCH   1  17
HETATM   17  O   UNK N   1      94.573  13.437  38.700  0.00  0.00    -0.347 OA
BRANCH  17  18
HETATM   18  C   UNK N   1      95.104  12.188  39.140  0.00  0.00     0.214 C 
BRANCH  18  19
HETATM   19  C   UNK N   1      96.340  12.456  39.964  0.00  0.00    -0.031 A 
HETATM   20  C   UNK N   1      97.016  11.410  40.607  0.00  0.00     0.051 A 
HETATM   21  C   UNK N   1      98.148  11.682  41.371  0.00  0.00     0.117 A 
HETATM   22  F   UNK N   1      98.784  10.674  41.981  0.00  0.00    -0.206 F 
HETATM   23  C   UNK N   1      98.626  12.979  41.512  0.00  0.00     0.042 A 
HETATM   24  C   UNK N   1      97.963  14.026  40.878  0.00  0.00     0.004 A 
HETATM   25  C   UNK N   1      96.826  13.768  40.108  0.00  0.00     0.009 A 
ENDBRANCH  18  19
ENDBRANCH  17  18
ENDBRANCH   1  17
TORSDOF 7
ENDMDL
