MODEL 1
REMARK VINA RESULT:      -8.5      0.000      0.000
REMARK  10 active torsions:
REMARK  status: ('A' for Active; 'I' for Inactive)
REMARK    1  A    between atoms: S_1  and  C_4 
REMARK    2  A    between atoms: S_1  and  C_5 
REMARK    3  A    between atoms: C_14  and  N_16 
REMARK    4  A    between atoms: C_15  and  N_17 
REMARK    5  A    between atoms: N_16  and  C_18 
REMARK    6  A    between atoms: N_17  and  C_19 
REMARK    7  A    between atoms: C_18  and  S_20 
REMARK    8  A    between atoms: C_19  and  S_21 
REMARK    9  A    between atoms: S_20  and  O_23 
REMARK   10  A    between atoms: S_21  and  O_25 
ROOT
HETATM    1  S   UNK N   1      93.417  12.872  39.079  0.00  0.00     0.206 S 
HETATM    2  O   UNK N   1      93.026  11.490  39.286  0.00  0.00    -0.217 OA
HETATM    3  O   UNK N   1      93.394  13.453  37.749  0.00  0.00    -0.217 OA
ENDROOT
BRANCH   1   4
HETATM    4  C   UNK N   1      95.066  13.040  39.721  0.00  0.00     0.064 A 
HETATM    5  C   UNK N   1      95.544  14.308  40.053  0.00  0.00     0.026 A 
HETATM    6  C   UNK N   1      96.840  14.444  40.561  0.00  0.00     0.030 A 
HETATM    7  C   UNK N   1      97.670  13.332  40.747  0.00  0.00     0.028 A 
HETATM    8  C   UNK N   1      97.155  12.068  40.422  0.00  0.00     0.030 A 
HETATM    9  C   UNK N   1      95.862  11.913  39.914  0.00  0.00     0.026 A 
BRANCH   7  10
HETATM   10  N   UNK N   1      98.949  13.417  41.261  0.00  0.00    -0.377 N 
HETATM   11  H   UNK N   1      99.599  12.663  41.061  0.00  0.00     0.160 HD
BRANCH  10  12
HETATM   12  C   UNK N   1      99.473  14.582  41.948  0.00  0.00     0.259 C 
BRANCH  12  13
HETATM   13  S   UNK N   1     100.498  15.694  40.846  0.00  0.00     0.168 S 
HETATM   14  O   UNK N   1     100.078  17.258  41.187  0.00  0.00    -0.227 OA
BRANCH  13  15
HETATM   15  O   UNK N   1      99.982  15.461  39.289  0.00  0.00    -0.305 OA
HETATM   16  H   UNK N   1      99.141  14.947  39.336  0.00  0.00     0.230 HD
ENDBRANCH  13  15
ENDBRANCH  12  13
ENDBRANCH  10  12
ENDBRANCH   7  10
ENDBRANCH   1   4
BRANCH   1  17
HETATM   17  C   UNK N   1      92.381  13.892  40.102  0.00  0.00     0.064 A 
HETATM   18  C   UNK N   1      92.723  14.090  41.439  0.00  0.00     0.026 A 
HETATM   19  C   UNK N   1      91.913  14.894  42.246  0.00  0.00     0.030 A 
HETATM   20  C   UNK N   1      90.761  15.510  41.739  0.00  0.00     0.028 A 
HETATM   21  C   UNK N   1      90.454  15.309  40.384  0.00  0.00     0.030 A 
HETATM   22  C   UNK N   1      91.254  14.508  39.562  0.00  0.00     0.026 A 
BRANCH  20  23
HETATM   23  N   UNK N   1      89.941  16.325  42.492  0.00  0.00    -0.377 N 
HETATM   24  H   UNK N   1      89.048  16.606  42.099  0.00  0.00     0.160 HD
BRANCH  23  25
HETATM   25  C   UNK N   1      90.205  16.692  43.871  0.00  0.00     0.259 C 
BRANCH  25  26
HETATM   26  S   UNK N   1      91.144  18.301  44.041  0.00  0.00     0.168 S 
HETATM   27  O   UNK N   1      91.230  18.661  45.654  0.00  0.00    -0.227 OA
BRANCH  26  28
HETATM   28  O   UNK N   1      90.194  19.501  43.403  0.00  0.00    -0.305 OA
HETATM   29  H   UNK N   1      89.632  19.844  44.137  0.00  0.00     0.230 HD
ENDBRANCH  26  28
ENDBRANCH  25  26
ENDBRANCH  23  25
ENDBRANCH  20  23
ENDBRANCH   1  17
TORSDOF 10
ENDMDL
MODEL 2
REMARK VINA RESULT:      -7.8      1.464      7.825
REMARK  10 active torsions:
REMARK  status: ('A' for Active; 'I' for Inactive)
REMARK    1  A    between atoms: S_1  and  C_4 
REMARK    2  A    between atoms: S_1  and  C_5 
REMARK    3  A    between atoms: C_14  and  N_16 
REMARK    4  A    between atoms: C_15  and  N_17 
REMARK    5  A    between atoms: N_16  and  C_18 
REMARK    6  A    between atoms: N_17  and  C_19 
REMARK    7  A    between atoms: C_18  and  S_20 
REMARK    8  A    between atoms: C_19  and  S_21 
REMARK    9  A    between atoms: S_20  and  O_23 
REMARK   10  A    between atoms: S_21  and  O_25 
ROOT
HETATM    1  S   UNK N   1      93.566  12.537  38.952  0.00  0.00     0.206 S 
HETATM    2  O   UNK N   1      93.570  13.053  37.596  0.00  0.00    -0.217 OA
HETATM    3  O   UNK N   1      93.223  11.151  39.212  0.00  0.00    -0.217 OA
ENDROOT
BRANCH   1   4
HETATM    4  C   UNK N   1      92.454  13.561  39.886  0.00  0.00     0.064 A 
HETATM    5  C   UNK N   1      91.451  14.266  39.220  0.00  0.00     0.026 A 
HETATM    6  C   UNK N   1      90.571  15.071  39.953  0.00  0.00     0.030 A 
HETATM    7  C   UNK N   1      90.674  15.182  41.345  0.00  0.00     0.028 A 
HETATM    8  C   UNK N   1      91.680  14.445  41.989  0.00  0.00     0.030 A 
HETATM    9  C   UNK N   1      92.567  13.636  41.272  0.00  0.00     0.026 A 
BRANCH   7  10
HETATM   10  N   UNK N   1      89.819  15.950  42.110  0.00  0.00    -0.377 N 
HETATM   11  H   UNK N   1      88.911  16.189  41.724  0.00  0.00     0.160 HD
BRANCH  10  12
HETATM   12  C   UNK N   1      90.073  16.318  43.490  0.00  0.00     0.259 C 
BRANCH  12  13
HETATM   13  S   UNK N   1      89.705  14.943  44.704  0.00  0.00     0.168 S 
HETATM   14  O   UNK N   1      88.075  14.950  44.987  0.00  0.00    -0.227 OA
BRANCH  13  15
HETATM   15  O   UNK N   1      90.375  15.372  46.157  0.00  0.00    -0.305 OA
HETATM   16  H   UNK N   1      90.992  16.122  45.983  0.00  0.00     0.230 HD
ENDBRANCH  13  15
ENDBRANCH  12  13
ENDBRANCH  10  12
ENDBRANCH   7  10
ENDBRANCH   1   4
BRANCH   1  17
HETATM   17  C   UNK N   1      95.182  12.803  39.643  0.00  0.00     0.064 A 
HETATM   18  C   UNK N   1      95.582  14.099  39.965  0.00  0.00     0.026 A 
HETATM   19  C   UNK N   1      96.852  14.312  40.512  0.00  0.00     0.030 A 
HETATM   20  C   UNK N   1      97.733  13.249  40.745  0.00  0.00     0.028 A 
HETATM   21  C   UNK N   1      97.295  11.953  40.429  0.00  0.00     0.030 A 
HETATM   22  C   UNK N   1      96.027  11.722  39.882  0.00  0.00     0.026 A 
BRANCH  20  23
HETATM   23  N   UNK N   1      98.988  13.408  41.297  0.00  0.00    -0.377 N 
HETATM   24  H   UNK N   1      99.642  12.634  41.239  0.00  0.00     0.160 HD
BRANCH  23  25
HETATM   25  C   UNK N   1      99.487  14.662  41.831  0.00  0.00     0.259 C 
BRANCH  25  26
HETATM   26  S   UNK N   1     100.646  15.554  40.664  0.00  0.00     0.168 S 
HETATM   27  O   UNK N   1     100.649  17.153  41.089  0.00  0.00    -0.227 OA
BRANCH  26  28
HETATM   28  O   UNK N   1      99.952  15.529  39.159  0.00  0.00    -0.305 OA
HETATM   29  H   UNK N   1     100.554  15.015  38.572  0.00  0.00     0.230 HD
ENDBRANCH  26  28
ENDBRANCH  25  26
ENDBRANCH  23  25
ENDBRANCH  20  23
ENDBRANCH   1  17
TORSDOF 10
ENDMDL
MODEL 3
REMARK VINA RESULT:      -7.6      1.543      2.161
REMARK  10 active torsions:
REMARK  status: ('A' for Active; 'I' for Inactive)
REMARK    1  A    between atoms: S_1  and  C_4 
REMARK    2  A    between atoms: S_1  and  C_5 
REMARK    3  A    between atoms: C_14  and  N_16 
REMARK    4  A    between atoms: C_15  and  N_17 
REMARK    5  A    between atoms: N_16  and  C_18 
REMARK    6  A    between atoms: N_17  and  C_19 
REMARK    7  A    between atoms: C_18  and  S_20 
REMARK    8  A    between atoms: C_19  and  S_21 
REMARK    9  A    between atoms: S_20  and  O_23 
REMARK   10  A    between atoms: S_21  and  O_25 
ROOT
HETATM    1  S   UNK N   1      93.824  12.327  39.123  0.00  0.00     0.206 S 
HETATM    2  O   UNK N   1      93.502  10.953  39.461  0.00  0.00    -0.217 OA
HETATM    3  O   UNK N   1      93.843  12.760  37.737  0.00  0.00    -0.217 OA
ENDROOT
BRANCH   1   4
HETATM    4  C   UNK N   1      95.422  12.667  39.823  0.00  0.00     0.064 A 
HETATM    5  C   UNK N   1      96.189  11.612  40.319  0.00  0.00     0.026 A 
HETATM    6  C   UNK N   1      97.449  11.875  40.868  0.00  0.00     0.030 A 
HETATM    7  C   UNK N   1      97.959  13.177  40.930  0.00  0.00     0.028 A 
HETATM    8  C   UNK N   1      97.173  14.215  40.405  0.00  0.00     0.030 A 
HETATM    9  C   UNK N   1      95.912  13.970  39.852  0.00  0.00     0.026 A 
BRANCH   7  10
HETATM   10  N   UNK N   1      99.202  13.482  41.447  0.00  0.00    -0.377 N 
HETATM   11  H   UNK N   1      99.894  12.741  41.506  0.00  0.00     0.160 HD
BRANCH  10  12
HETATM   12  C   UNK N   1      99.637  14.826  41.779  0.00  0.00     0.259 C 
BRANCH  12  13
HETATM   13  S   UNK N   1     100.866  15.531  40.557  0.00  0.00     0.168 S 
HETATM   14  O   UNK N   1     101.122  17.114  40.963  0.00  0.00    -0.227 OA
BRANCH  13  15
HETATM   15  O   UNK N   1     100.114  15.602  39.083  0.00  0.00    -0.305 OA
HETATM   16  H   UNK N   1      99.198  15.257  39.207  0.00  0.00     0.230 HD
ENDBRANCH  13  15
ENDBRANCH  12  13
ENDBRANCH  10  12
ENDBRANCH   7  10
ENDBRANCH   1   4
BRANCH   1  17
HETATM   17  C   UNK N   1      92.676  13.384  39.974  0.00  0.00     0.064 A 
HETATM   18  C   UNK N   1      91.676  14.031  39.249  0.00  0.00     0.026 A 
HETATM   19  C   UNK N   1      90.769  14.861  39.916  0.00  0.00     0.030 A 
HETATM   20  C   UNK N   1      90.842  15.057  41.301  0.00  0.00     0.028 A 
HETATM   21  C   UNK N   1      91.847  14.376  42.007  0.00  0.00     0.030 A 
HETATM   22  C   UNK N   1      92.762  13.542  41.355  0.00  0.00     0.026 A 
BRANCH  20  23
HETATM   23  N   UNK N   1      89.960  15.852  42.004  0.00  0.00    -0.377 N 
HETATM   24  H   UNK N   1      89.080  16.101  41.563  0.00  0.00     0.160 HD
BRANCH  23  25
HETATM   25  C   UNK N   1      90.144  16.240  43.389  0.00  0.00     0.259 C 
BRANCH  25  26
HETATM   26  S   UNK N   1      89.670  14.897  44.603  0.00  0.00     0.168 S 
HETATM   27  O   UNK N   1      88.040  15.007  44.858  0.00  0.00    -0.227 OA
BRANCH  26  28
HETATM   28  O   UNK N   1      90.343  15.291  46.066  0.00  0.00    -0.305 OA
HETATM   29  H   UNK N   1      91.214  14.831  46.117  0.00  0.00     0.230 HD
ENDBRANCH  26  28
ENDBRANCH  25  26
ENDBRANCH  23  25
ENDBRANCH  20  23
ENDBRANCH   1  17
TORSDOF 10
ENDMDL
MODEL 4
REMARK VINA RESULT:      -7.6      6.477      9.035
REMARK  10 active torsions:
REMARK  status: ('A' for Active; 'I' for Inactive)
REMARK    1  A    between atoms: S_1  and  C_4 
REMARK    2  A    between atoms: S_1  and  C_5 
REMARK    3  A    between atoms: C_14  and  N_16 
REMARK    4  A    between atoms: C_15  and  N_17 
REMARK    5  A    between atoms: N_16  and  C_18 
REMARK    6  A    between atoms: N_17  and  C_19 
REMARK    7  A    between atoms: C_18  and  S_20 
REMARK    8  A    between atoms: C_19  and  S_21 
REMARK    9  A    between atoms: S_20  and  O_23 
REMARK   10  A    between atoms: S_21  and  O_25 
ROOT
HETATM    1  S   UNK N   1      86.547  13.256  44.501  0.00  0.00     0.206 S 
HETATM    2  O   UNK N   1      86.500  12.449  45.705  0.00  0.00    -0.217 OA
HETATM    3  O   UNK N   1      86.434  12.637  43.193  0.00  0.00    -0.217 OA
ENDROOT
BRANCH   1   4
HETATM    4  C   UNK N   1      88.076  14.160  44.548  0.00  0.00     0.064 A 
HETATM    5  C   UNK N   1      89.025  13.847  45.522  0.00  0.00     0.026 A 
HETATM    6  C   UNK N   1      90.232  14.554  45.561  0.00  0.00     0.030 A 
HETATM    7  C   UNK N   1      90.510  15.570  44.638  0.00  0.00     0.028 A 
HETATM    8  C   UNK N   1      89.545  15.848  43.658  0.00  0.00     0.030 A 
HETATM    9  C   UNK N   1      88.334  15.152  43.605  0.00  0.00     0.026 A 
BRANCH   7  10
HETATM   10  N   UNK N   1      91.693  16.282  44.627  0.00  0.00    -0.377 N 
HETATM   11  H   UNK N   1      92.450  15.968  45.227  0.00  0.00     0.160 HD
BRANCH  10  12
HETATM   12  C   UNK N   1      91.980  17.367  43.707  0.00  0.00     0.259 C 
BRANCH  12  13
HETATM   13  S   UNK N   1      90.973  18.908  44.041  0.00  0.00     0.168 S 
HETATM   14  O   UNK N   1      91.721  20.169  43.275  0.00  0.00    -0.227 OA
BRANCH  13  15
HETATM   15  O   UNK N   1      91.125  19.259  45.653  0.00  0.00    -0.305 OA
HETATM   16  H   UNK N   1      90.522  20.017  45.843  0.00  0.00     0.230 HD
ENDBRANCH  13  15
ENDBRANCH  12  13
ENDBRANCH  10  12
ENDBRANCH   7  10
ENDBRANCH   1   4
BRANCH   1  17
HETATM   17  C   UNK N   1      85.252  14.470  44.606  0.00  0.00     0.064 A 
HETATM   18  C   UNK N   1      84.076  14.280  43.882  0.00  0.00     0.026 A 
HETATM   19  C   UNK N   1      83.054  15.231  43.964  0.00  0.00     0.030 A 
HETATM   20  C   UNK N   1      83.185  16.374  44.762  0.00  0.00     0.028 A 
HETATM   21  C   UNK N   1      84.372  16.529  45.496  0.00  0.00     0.030 A 
HETATM   22  C   UNK N   1      85.404  15.586  45.426  0.00  0.00     0.026 A 
BRANCH  20  23
HETATM   23  N   UNK N   1      82.198  17.331  44.888  0.00  0.00    -0.377 N 
HETATM   24  H   UNK N   1      82.410  18.177  45.407  0.00  0.00     0.160 HD
BRANCH  23  25
HETATM   25  C   UNK N   1      80.920  17.272  44.204  0.00  0.00     0.259 C 
BRANCH  25  26
HETATM   26  S   UNK N   1      80.962  18.022  42.490  0.00  0.00     0.168 S 
HETATM   27  O   UNK N   1      80.932  16.777  41.401  0.00  0.00    -0.227 OA
BRANCH  26  28
HETATM   28  O   UNK N   1      82.456  18.710  42.286  0.00  0.00    -0.305 OA
HETATM   29  H   UNK N   1      83.108  17.973  42.228  0.00  0.00     0.230 HD
ENDBRANCH  26  28
ENDBRANCH  25  26
ENDBRANCH  23  25
ENDBRANCH  20  23
ENDBRANCH   1  17
TORSDOF 10
ENDMDL
MODEL 5
REMARK VINA RESULT:      -7.2      6.246      8.592
REMARK  10 active torsions:
REMARK  status: ('A' for Active; 'I' for Inactive)
REMARK    1  A    between atoms: S_1  and  C_4 
REMARK    2  A    between atoms: S_1  and  C_5 
REMARK    3  A    between atoms: C_14  and  N_16 
REMARK    4  A    between atoms: C_15  and  N_17 
REMARK    5  A    between atoms: N_16  and  C_18 
REMARK    6  A    between atoms: N_17  and  C_19 
REMARK    7  A    between atoms: C_18  and  S_20 
REMARK    8  A    between atoms: C_19  and  S_21 
REMARK    9  A    between atoms: S_20  and  O_23 
REMARK   10  A    between atoms: S_21  and  O_25 
ROOT
HETATM    1  S   UNK N   1      86.639  13.108  44.220  0.00  0.00     0.206 S 
HETATM    2  O   UNK N   1      86.867  12.376  45.452  0.00  0.00    -0.217 OA
HETATM    3  O   UNK N   1      86.265  12.408  43.004  0.00  0.00    -0.217 OA
ENDROOT
BRANCH   1   4
HETATM    4  C   UNK N   1      88.124  14.025  43.886  0.00  0.00     0.064 A 
HETATM    5  C   UNK N   1      88.341  14.532  42.604  0.00  0.00     0.026 A 
HETATM    6  C   UNK N   1      89.508  15.257  42.338  0.00  0.00     0.030 A 
HETATM    7  C   UNK N   1      90.464  15.489  43.334  0.00  0.00     0.028 A 
HETATM    8  C   UNK N   1      90.209  14.983  44.618  0.00  0.00     0.030 A 
HETATM    9  C   UNK N   1      89.049  14.257  44.901  0.00  0.00     0.026 A 
BRANCH   7  10
HETATM   10  N   UNK N   1      91.620  16.212  43.122  0.00  0.00    -0.377 N 
HETATM   11  H   UNK N   1      92.101  16.103  42.235  0.00  0.00     0.160 HD
BRANCH  10  12
HETATM   12  C   UNK N   1      92.119  17.231  44.028  0.00  0.00     0.259 C 
BRANCH  12  13
HETATM   13  S   UNK N   1      91.015  18.738  44.127  0.00  0.00     0.168 S 
HETATM   14  O   UNK N   1      91.714  19.930  43.216  0.00  0.00    -0.227 OA
BRANCH  13  15
HETATM   15  O   UNK N   1      91.095  19.309  45.681  0.00  0.00    -0.305 OA
HETATM   16  H   UNK N   1      91.738  20.058  45.682  0.00  0.00     0.230 HD
ENDBRANCH  13  15
ENDBRANCH  12  13
ENDBRANCH  10  12
ENDBRANCH   7  10
ENDBRANCH   1   4
BRANCH   1  17
HETATM   17  C   UNK N   1      85.370  14.315  44.527  0.00  0.00     0.064 A 
HETATM   18  C   UNK N   1      85.630  15.373  45.396  0.00  0.00     0.026 A 
HETATM   19  C   UNK N   1      84.636  16.326  45.638  0.00  0.00     0.030 A 
HETATM   20  C   UNK N   1      83.380  16.241  45.023  0.00  0.00     0.028 A 
HETATM   21  C   UNK N   1      83.155  15.176  44.137  0.00  0.00     0.030 A 
HETATM   22  C   UNK N   1      84.139  14.214  43.883  0.00  0.00     0.026 A 
BRANCH  20  23
HETATM   23  N   UNK N   1      82.374  17.167  45.218  0.00  0.00    -0.377 N 
HETATM   24  H   UNK N   1      81.840  17.475  44.412  0.00  0.00     0.160 HD
BRANCH  23  25
HETATM   25  C   UNK N   1      81.933  17.623  46.523  0.00  0.00     0.259 C 
BRANCH  25  26
HETATM   26  S   UNK N   1      82.515  19.352  46.938  0.00  0.00     0.168 S 
HETATM   27  O   UNK N   1      82.353  20.275  45.575  0.00  0.00    -0.227 OA
BRANCH  26  28
HETATM   28  O   UNK N   1      84.152  19.277  47.190  0.00  0.00    -0.305 OA
HETATM   29  H   UNK N   1      84.532  20.132  46.877  0.00  0.00     0.230 HD
ENDBRANCH  26  28
ENDBRANCH  25  26
ENDBRANCH  23  25
ENDBRANCH  20  23
ENDBRANCH   1  17
TORSDOF 10
ENDMDL
MODEL 6
REMARK VINA RESULT:      -7.2     13.657     15.722
REMARK  10 active torsions:
REMARK  status: ('A' for Active; 'I' for Inactive)
REMARK    1  A    between atoms: S_1  and  C_4 
REMARK    2  A    between atoms: S_1  and  C_5 
REMARK    3  A    between atoms: C_14  and  N_16 
REMARK    4  A    between atoms: C_15  and  N_17 
REMARK    5  A    between atoms: N_16  and  C_18 
REMARK    6  A    between atoms: N_17  and  C_19 
REMARK    7  A    between atoms: C_18  and  S_20 
REMARK    8  A    between atoms: C_19  and  S_21 
REMARK    9  A    between atoms: S_20  and  O_23 
REMARK   10  A    between atoms: S_21  and  O_25 
ROOT
HETATM    1  S   UNK N   1      79.136  21.774  41.988  0.00  0.00     0.206 S 
HETATM    2  O   UNK N   1      78.398  20.570  41.654  0.00  0.00    -0.217 OA
HETATM    3  O   UNK N   1      78.448  22.941  42.509  0.00  0.00    -0.217 OA
ENDROOT
BRANCH   1   4
HETATM    4  C   UNK N   1      80.009  22.264  40.520  0.00  0.00     0.064 A 
HETATM    5  C   UNK N   1      80.811  21.334  39.858  0.00  0.00     0.026 A 
HETATM    6  C   UNK N   1      81.498  21.715  38.700  0.00  0.00     0.030 A 
HETATM    7  C   UNK N   1      81.396  23.014  38.188  0.00  0.00     0.028 A 
HETATM    8  C   UNK N   1      80.566  23.922  38.864  0.00  0.00     0.030 A 
HETATM    9  C   UNK N   1      79.873  23.557  40.022  0.00  0.00     0.026 A 
BRANCH   7  10
HETATM   10  N   UNK N   1      82.041  23.430  37.040  0.00  0.00    -0.377 N 
HETATM   11  H   UNK N   1      82.235  22.741  36.320  0.00  0.00     0.160 HD
BRANCH  10  12
HETATM   12  C   UNK N   1      82.332  24.817  36.730  0.00  0.00     0.259 C 
BRANCH  12  13
HETATM   13  S   UNK N   1      84.061  25.338  37.218  0.00  0.00     0.168 S 
HETATM   14  O   UNK N   1      83.972  26.014  38.726  0.00  0.00    -0.227 OA
BRANCH  13  15
HETATM   15  O   UNK N   1      84.497  26.596  36.231  0.00  0.00    -0.305 OA
HETATM   16  H   UNK N   1      83.968  26.512  35.403  0.00  0.00     0.230 HD
ENDBRANCH  13  15
ENDBRANCH  12  13
ENDBRANCH  10  12
ENDBRANCH   7  10
ENDBRANCH   1   4
BRANCH   1  17
HETATM   17  C   UNK N   1      80.380  21.338  43.181  0.00  0.00     0.064 A 
HETATM   18  C   UNK N   1      80.518  20.007  43.569  0.00  0.00     0.026 A 
HETATM   19  C   UNK N   1      81.498  19.659  44.506  0.00  0.00     0.030 A 
HETATM   20  C   UNK N   1      82.347  20.624  45.063  0.00  0.00     0.028 A 
HETATM   21  C   UNK N   1      82.198  21.953  44.637  0.00  0.00     0.030 A 
HETATM   22  C   UNK N   1      81.224  22.317  43.701  0.00  0.00     0.026 A 
BRANCH  20  23
HETATM   23  N   UNK N   1      83.338  20.326  45.977  0.00  0.00    -0.377 N 
HETATM   24  H   UNK N   1      84.143  20.943  46.033  0.00  0.00     0.160 HD
BRANCH  23  25
HETATM   25  C   UNK N   1      83.240  19.269  46.965  0.00  0.00     0.259 C 
BRANCH  25  26
HETATM   26  S   UNK N   1      83.822  17.607  46.333  0.00  0.00     0.168 S 
HETATM   27  O   UNK N   1      82.479  16.689  46.033  0.00  0.00    -0.227 OA
BRANCH  26  28
HETATM   28  O   UNK N   1      84.576  16.834  47.590  0.00  0.00    -0.305 OA
HETATM   29  H   UNK N   1      84.544  15.867  47.395  0.00  0.00     0.230 HD
ENDBRANCH  26  28
ENDBRANCH  25  26
ENDBRANCH  23  25
ENDBRANCH  20  23
ENDBRANCH   1  17
TORSDOF 10
ENDMDL
MODEL 7
REMARK VINA RESULT:      -7.2      6.468     11.248
REMARK  10 active torsions:
REMARK  status: ('A' for Active; 'I' for Inactive)
REMARK    1  A    between atoms: S_1  and  C_4 
REMARK    2  A    between atoms: S_1  and  C_5 
REMARK    3  A    between atoms: C_14  and  N_16 
REMARK    4  A    between atoms: C_15  and  N_17 
REMARK    5  A    between atoms: N_16  and  C_18 
REMARK    6  A    between atoms: N_17  and  C_19 
REMARK    7  A    between atoms: C_18  and  S_20 
REMARK    8  A    between atoms: C_19  and  S_21 
REMARK    9  A    between atoms: S_20  and  O_23 
REMARK   10  A    between atoms: S_21  and  O_25 
ROOT
HETATM    1  S   UNK N   1      86.830  13.047  44.480  0.00  0.00     0.206 S 
HETATM    2  O   UNK N   1      86.695  12.549  43.124  0.00  0.00    -0.217 OA
HETATM    3  O   UNK N   1      86.899  12.126  45.600  0.00  0.00    -0.217 OA
ENDROOT
BRANCH   1   4
HETATM    4  C   UNK N   1      85.463  14.147  44.760  0.00  0.00     0.064 A 
HETATM    5  C   UNK N   1      84.272  13.951  44.059  0.00  0.00     0.026 A 
HETATM    6  C   UNK N   1      83.193  14.813  44.279  0.00  0.00     0.030 A 
HETATM    7  C   UNK N   1      83.280  15.871  45.192  0.00  0.00     0.028 A 
HETATM    8  C   UNK N   1      84.484  16.032  45.896  0.00  0.00     0.030 A 
HETATM    9  C   UNK N   1      85.572  15.179  45.689  0.00  0.00     0.026 A 
BRANCH   7  10
HETATM   10  N   UNK N   1      82.237  16.736  45.453  0.00  0.00    -0.377 N 
HETATM   11  H   UNK N   1      81.491  16.419  46.065  0.00  0.00     0.160 HD
BRANCH  10  12
HETATM   12  C   UNK N   1      82.204  18.123  45.029  0.00  0.00     0.259 C 
BRANCH  12  13
HETATM   13  S   UNK N   1      82.594  19.329  46.405  0.00  0.00     0.168 S 
HETATM   14  O   UNK N   1      81.189  20.106  46.801  0.00  0.00    -0.227 OA
BRANCH  13  15
HETATM   15  O   UNK N   1      83.554  20.518  45.764  0.00  0.00    -0.305 OA
HETATM   16  H   UNK N   1      83.008  21.008  45.105  0.00  0.00     0.230 HD
ENDBRANCH  13  15
ENDBRANCH  12  13
ENDBRANCH  10  12
ENDBRANCH   7  10
ENDBRANCH   1   4
BRANCH   1  17
HETATM   17  C   UNK N   1      88.295  14.050  44.551  0.00  0.00     0.064 A 
HETATM   18  C   UNK N   1      89.244  13.805  45.543  0.00  0.00     0.026 A 
HETATM   19  C   UNK N   1      90.400  14.590  45.600  0.00  0.00     0.030 A 
HETATM   20  C   UNK N   1      90.627  15.621  44.680  0.00  0.00     0.028 A 
HETATM   21  C   UNK N   1      89.664  15.832  43.681  0.00  0.00     0.030 A 
HETATM   22  C   UNK N   1      88.502  15.055  43.608  0.00  0.00     0.026 A 
BRANCH  20  23
HETATM   23  N   UNK N   1      91.759  16.411  44.687  0.00  0.00    -0.377 N 
HETATM   24  H   UNK N   1      92.503  16.181  45.339  0.00  0.00     0.160 HD
BRANCH  23  25
HETATM   25  C   UNK N   1      92.020  17.465  43.726  0.00  0.00     0.259 C 
BRANCH  25  26
HETATM   26  S   UNK N   1      91.001  19.006  44.021  0.00  0.00     0.168 S 
HETATM   27  O   UNK N   1      91.770  20.265  43.272  0.00  0.00    -0.227 OA
BRANCH  26  28
HETATM   28  O   UNK N   1      91.101  19.366  45.636  0.00  0.00    -0.305 OA
HETATM   29  H   UNK N   1      91.705  20.141  45.722  0.00  0.00     0.230 HD
ENDBRANCH  26  28
ENDBRANCH  25  26
ENDBRANCH  23  25
ENDBRANCH  20  23
ENDBRANCH   1  17
TORSDOF 10
ENDMDL
MODEL 8
REMARK VINA RESULT:      -7.1      5.911     11.769
REMARK  10 active torsions:
REMARK  status: ('A' for Active; 'I' for Inactive)
REMARK    1  A    between atoms: S_1  and  C_4 
REMARK    2  A    between atoms: S_1  and  C_5 
REMARK    3  A    between atoms: C_14  and  N_16 
REMARK    4  A    between atoms: C_15  and  N_17 
REMARK    5  A    between atoms: N_16  and  C_18 
REMARK    6  A    between atoms: N_17  and  C_19 
REMARK    7  A    between atoms: C_18  and  S_20 
REMARK    8  A    between atoms: C_19  and  S_21 
REMARK    9  A    between atoms: S_20  and  O_23 
REMARK   10  A    between atoms: S_21  and  O_25 
ROOT
HETATM    1  S   UNK N   1      86.810  13.743  45.017  0.00  0.00     0.206 S 
HETATM    2  O   UNK N   1      86.557  12.318  44.930  0.00  0.00    -0.217 OA
HETATM    3  O   UNK N   1      87.388  14.318  46.219  0.00  0.00    -0.217 OA
ENDROOT
BRANCH   1   4
HETATM    4  C   UNK N   1      85.261  14.559  44.713  0.00  0.00     0.064 A 
HETATM    5  C   UNK N   1      85.106  15.894  45.089  0.00  0.00     0.026 A 
HETATM    6  C   UNK N   1      83.888  16.540  44.848  0.00  0.00     0.030 A 
HETATM    7  C   UNK N   1      82.819  15.876  44.235  0.00  0.00     0.028 A 
HETATM    8  C   UNK N   1      83.012  14.540  43.851  0.00  0.00     0.030 A 
HETATM    9  C   UNK N   1      84.222  13.879  44.083  0.00  0.00     0.026 A 
BRANCH   7  10
HETATM   10  N   UNK N   1      81.607  16.477  43.963  0.00  0.00    -0.377 N 
HETATM   11  H   UNK N   1      80.895  15.932  43.487  0.00  0.00     0.160 HD
BRANCH  10  12
HETATM   12  C   UNK N   1      81.228  17.794  44.440  0.00  0.00     0.259 C 
BRANCH  12  13
HETATM   13  S   UNK N   1      81.126  19.075  43.080  0.00  0.00     0.168 S 
HETATM   14  O   UNK N   1      79.928  18.603  42.040  0.00  0.00    -0.227 OA
BRANCH  13  15
HETATM   15  O   UNK N   1      82.515  18.959  42.185  0.00  0.00    -0.305 OA
HETATM   16  H   UNK N   1      83.125  19.667  42.502  0.00  0.00     0.230 HD
ENDBRANCH  13  15
ENDBRANCH  12  13
ENDBRANCH  10  12
ENDBRANCH   7  10
ENDBRANCH   1   4
BRANCH   1  17
HETATM   17  C   UNK N   1      87.879  14.193  43.670  0.00  0.00     0.064 A 
HETATM   18  C   UNK N   1      87.823  13.466  42.482  0.00  0.00     0.026 A 
HETATM   19  C   UNK N   1      88.660  13.819  41.418  0.00  0.00     0.030 A 
HETATM   20  C   UNK N   1      89.556  14.891  41.520  0.00  0.00     0.028 A 
HETATM   21  C   UNK N   1      89.575  15.617  42.721  0.00  0.00     0.030 A 
HETATM   22  C   UNK N   1      88.744  15.278  43.794  0.00  0.00     0.026 A 
BRANCH  20  23
HETATM   23  N   UNK N   1      90.388  15.286  40.492  0.00  0.00    -0.377 N 
HETATM   24  H   UNK N   1      90.207  16.176  40.040  0.00  0.00     0.160 HD
BRANCH  23  25
HETATM   25  C   UNK N   1      91.595  14.578  40.108  0.00  0.00     0.259 C 
BRANCH  25  26
HETATM   26  S   UNK N   1      91.742  14.313  38.262  0.00  0.00     0.168 S 
HETATM   27  O   UNK N   1      90.955  12.905  37.895  0.00  0.00    -0.227 OA
BRANCH  26  28
HETATM   28  O   UNK N   1      93.335  13.991  37.931  0.00  0.00    -0.305 OA
HETATM   29  H   UNK N   1      93.530  13.097  38.299  0.00  0.00     0.230 HD
ENDBRANCH  26  28
ENDBRANCH  25  26
ENDBRANCH  23  25
ENDBRANCH  20  23
ENDBRANCH   1  17
TORSDOF 10
ENDMDL
MODEL 9
REMARK VINA RESULT:      -6.9      4.121      7.914
REMARK  10 active torsions:
REMARK  status: ('A' for Active; 'I' for Inactive)
REMARK    1  A    between atoms: S_1  and  C_4 
REMARK    2  A    between atoms: S_1  and  C_5 
REMARK    3  A    between atoms: C_14  and  N_16 
REMARK    4  A    between atoms: C_15  and  N_17 
REMARK    5  A    between atoms: N_16  and  C_18 
REMARK    6  A    between atoms: N_17  and  C_19 
REMARK    7  A    between atoms: C_18  and  S_20 
REMARK    8  A    between atoms: C_19  and  S_21 
REMARK    9  A    between atoms: S_20  and  O_23 
REMARK   10  A    between atoms: S_21  and  O_25 
ROOT
HETATM    1  S   UNK N   1      93.164  12.497  39.475  0.00  0.00     0.206 S 
HETATM    2  O   UNK N   1      93.708  11.541  40.421  0.00  0.00    -0.217 OA
HETATM    3  O   UNK N   1      94.037  13.200  38.553  0.00  0.00    -0.217 OA
ENDROOT
BRANCH   1   4
HETATM    4  C   UNK N   1      92.279  13.711  40.424  0.00  0.00     0.064 A 
HETATM    5  C   UNK N   1      91.195  14.373  39.846  0.00  0.00     0.026 A 
HETATM    6  C   UNK N   1      90.493  15.328  40.590  0.00  0.00     0.030 A 
HETATM    7  C   UNK N   1      90.856  15.634  41.908  0.00  0.00     0.028 A 
HETATM    8  C   UNK N   1      91.938  14.938  42.468  0.00  0.00     0.030 A 
HETATM    9  C   UNK N   1      92.649  13.980  41.739  0.00  0.00     0.026 A 
BRANCH   7  10
HETATM   10  N   UNK N   1      90.184  16.555  42.685  0.00  0.00    -0.377 N 
HETATM   11  H   UNK N   1      89.385  17.034  42.282  0.00  0.00     0.160 HD
BRANCH  10  12
HETATM   12  C   UNK N   1      90.453  16.781  44.093  0.00  0.00     0.259 C 
BRANCH  12  13
HETATM   13  S   UNK N   1      91.332  18.398  44.430  0.00  0.00     0.168 S 
HETATM   14  O   UNK N   1      90.588  19.567  43.526  0.00  0.00    -0.227 OA
BRANCH  13  15
HETATM   15  O   UNK N   1      92.851  18.281  43.779  0.00  0.00    -0.305 OA
HETATM   16  H   UNK N   1      93.200  17.388  44.014  0.00  0.00     0.230 HD
ENDBRANCH  13  15
ENDBRANCH  12  13
ENDBRANCH  10  12
ENDBRANCH   7  10
ENDBRANCH   1   4
BRANCH   1  17
HETATM   17  C   UNK N   1      91.946  11.657  38.488  0.00  0.00     0.064 A 
HETATM   18  C   UNK N   1      90.771  11.209  39.088  0.00  0.00     0.026 A 
HETATM   19  C   UNK N   1      89.809  10.551  38.315  0.00  0.00     0.030 A 
HETATM   20  C   UNK N   1      90.002  10.331  36.945  0.00  0.00     0.028 A 
HETATM   21  C   UNK N   1      91.186  10.811  36.364  0.00  0.00     0.030 A 
HETATM   22  C   UNK N   1      92.158  11.473  37.124  0.00  0.00     0.026 A 
BRANCH  20  23
HETATM   23  N   UNK N   1      89.075   9.702  36.139  0.00  0.00    -0.377 N 
HETATM   24  H   UNK N   1      89.323   8.809  35.725  0.00  0.00     0.160 HD
BRANCH  23  25
HETATM   25  C   UNK N   1      87.711  10.162  35.957  0.00  0.00     0.259 C 
BRANCH  25  26
HETATM   26  S   UNK N   1      87.510  11.329  34.509  0.00  0.00     0.168 S 
HETATM   27  O   UNK N   1      86.057  10.991  33.793  0.00  0.00    -0.227 OA
BRANCH  26  28
HETATM   28  O   UNK N   1      88.637  10.904  33.369  0.00  0.00    -0.305 OA
HETATM   29  H   UNK N   1      88.263  11.147  32.489  0.00  0.00     0.230 HD
ENDBRANCH  26  28
ENDBRANCH  25  26
ENDBRANCH  23  25
ENDBRANCH  20  23
ENDBRANCH   1  17
TORSDOF 10
ENDMDL
