MODEL 1
REMARK VINA RESULT:      -7.2      0.000      0.000
REMARK  4 active torsions:
REMARK  status: ('A' for Active; 'I' for Inactive)
REMARK    1  A    between atoms: S_1  and  N_4 
REMARK    2  A    between atoms: S_1  and  C_5 
REMARK    3  A    between atoms: N_4  and  C_6 
REMARK    4  A    between atoms: C_17  and  N_19 
ROOT
HETATM    1  S   UNK N   1      80.819  26.363  37.659  0.00  0.00     0.247 S 
HETATM    2  O   UNK N   1      80.445  25.180  36.914  0.00  0.00    -0.205 OA
HETATM    3  O   UNK N   1      80.943  26.354  39.100  0.00  0.00    -0.205 OA
ENDROOT
BRANCH   1   4
HETATM    4  N   UNK N   1      82.218  26.969  36.928  0.00  0.00    -0.159 NA
HETATM    5  H   UNK N   1      82.210  26.632  35.964  0.00  0.00     0.148 HD
BRANCH   4   6
HETATM    6  C   UNK N   1      83.409  26.411  37.547  0.00  0.00     0.153 A 
HETATM    7  S   UNK N   1      84.051  24.867  37.205  0.00  0.00    -0.044 SA
HETATM    8  C   UNK N   1      85.218  25.177  38.429  0.00  0.00     0.065 A 
HETATM    9  C   UNK N   1      86.283  24.190  38.733  0.00  0.00     0.078 C 
HETATM   10  N   UNK N   1      85.058  26.332  39.044  0.00  0.00    -0.297 N 
HETATM   11  N   UNK N   1      83.984  27.042  38.541  0.00  0.00    -0.283 N 
ATOM     12  HN  UNK N   1      85.656  26.662  39.801  1.00  0.00     0.187 HD
ATOM     13  HN  UNK N   1      83.677  27.946  38.901  1.00  0.00     0.188 HD
ENDBRANCH   4   6
ENDBRANCH   1   4
BRANCH   1  14
HETATM   14  C   UNK N   1      79.664  27.651  37.246  0.00  0.00     0.075 A 
HETATM   15  C   UNK N   1      78.605  27.919  38.116  0.00  0.00     0.027 A 
HETATM   16  C   UNK N   1      77.690  28.925  37.794  0.00  0.00     0.030 A 
HETATM   17  C   UNK N   1      77.812  29.649  36.604  0.00  0.00     0.025 A 
HETATM   18  C   UNK N   1      78.882  29.370  35.749  0.00  0.00     0.030 A 
HETATM   19  C   UNK N   1      79.805  28.367  36.057  0.00  0.00     0.027 A 
BRANCH  17  20
HETATM   20  N   UNK N   1      76.925  30.668  36.309  0.00  0.00    -0.399 N 
HETATM   21  H   UNK N   1      75.934  30.545  36.465  0.00  0.00     0.156 HD
HETATM   22  H   UNK N   1      77.263  31.602  36.125  0.00  0.00     0.156 HD
ENDBRANCH  17  20
ENDBRANCH   1  14
TORSDOF 4
ENDMDL
MODEL 2
REMARK VINA RESULT:      -7.0      4.236      5.647
REMARK  4 active torsions:
REMARK  status: ('A' for Active; 'I' for Inactive)
REMARK    1  A    between atoms: S_1  and  N_4 
REMARK    2  A    between atoms: S_1  and  C_5 
REMARK    3  A    between atoms: N_4  and  C_6 
REMARK    4  A    between atoms: C_17  and  N_19 
ROOT
HETATM    1  S   UNK N   1      84.028  25.917  37.853  0.00  0.00     0.247 S 
HETATM    2  O   UNK N   1      84.881  24.903  38.434  0.00  0.00    -0.205 OA
HETATM    3  O   UNK N   1      84.080  26.249  36.446  0.00  0.00    -0.205 OA
ENDROOT
BRANCH   1   4
HETATM    4  N   UNK N   1      82.449  25.551  38.336  0.00  0.00    -0.159 NA
HETATM    5  H   UNK N   1      82.502  25.284  39.320  0.00  0.00     0.148 HD
BRANCH   4   6
HETATM    6  C   UNK N   1      81.945  24.389  37.622  0.00  0.00     0.153 A 
HETATM    7  S   UNK N   1      80.877  24.452  36.293  0.00  0.00    -0.044 SA
HETATM    8  C   UNK N   1      80.866  22.733  36.332  0.00  0.00     0.065 A 
HETATM    9  C   UNK N   1      80.096  21.953  35.332  0.00  0.00     0.078 C 
HETATM   10  N   UNK N   1      81.577  22.213  37.313  0.00  0.00    -0.297 N 
HETATM   11  N   UNK N   1      82.189  23.185  38.081  0.00  0.00    -0.283 N 
ATOM     12  HN  UNK N   1      81.665  21.211  37.484  1.00  0.00     0.187 HD
ATOM     13  HN  UNK N   1      82.759  22.990  38.903  1.00  0.00     0.188 HD
ENDBRANCH   4   6
ENDBRANCH   1   4
BRANCH   1  14
HETATM   14  C   UNK N   1      84.290  27.428  38.752  0.00  0.00     0.075 A 
HETATM   15  C   UNK N   1      85.048  27.399  39.925  0.00  0.00     0.027 A 
HETATM   16  C   UNK N   1      85.252  28.582  40.640  0.00  0.00     0.030 A 
HETATM   17  C   UNK N   1      84.690  29.787  40.207  0.00  0.00     0.025 A 
HETATM   18  C   UNK N   1      83.939  29.797  39.027  0.00  0.00     0.030 A 
HETATM   19  C   UNK N   1      83.727  28.622  38.300  0.00  0.00     0.027 A 
BRANCH  17  20
HETATM   20  N   UNK N   1      84.926  30.960  40.898  0.00  0.00    -0.399 N 
HETATM   21  H   UNK N   1      84.173  31.429  41.383  0.00  0.00     0.156 HD
HETATM   22  H   UNK N   1      85.872  31.256  41.095  0.00  0.00     0.156 HD
ENDBRANCH  17  20
ENDBRANCH   1  14
TORSDOF 4
ENDMDL
MODEL 3
REMARK VINA RESULT:      -6.8     15.478     17.757
REMARK  4 active torsions:
REMARK  status: ('A' for Active; 'I' for Inactive)
REMARK    1  A    between atoms: S_1  and  N_4 
REMARK    2  A    between atoms: S_1  and  C_5 
REMARK    3  A    between atoms: N_4  and  C_6 
REMARK    4  A    between atoms: C_17  and  N_19 
ROOT
HETATM    1  S   UNK N   1      90.612  16.211  44.641  0.00  0.00     0.247 S 
HETATM    2  O   UNK N   1      90.828  17.425  45.398  0.00  0.00    -0.205 OA
HETATM    3  O   UNK N   1      89.717  15.171  45.099  0.00  0.00    -0.205 OA
ENDROOT
BRANCH   1   4
HETATM    4  N   UNK N   1      90.238  16.689  43.063  0.00  0.00    -0.159 NA
HETATM    5  H   UNK N   1      89.548  17.438  43.143  0.00  0.00     0.148 HD
BRANCH   4   6
HETATM    6  C   UNK N   1      89.589  15.611  42.335  0.00  0.00     0.153 A 
HETATM    7  S   UNK N   1      90.204  14.886  40.918  0.00  0.00    -0.044 SA
HETATM    8  C   UNK N   1      88.759  13.955  40.872  0.00  0.00     0.065 A 
HETATM    9  C   UNK N   1      88.543  12.937  39.815  0.00  0.00     0.078 C 
HETATM   10  N   UNK N   1      87.902  14.245  41.830  0.00  0.00    -0.297 N 
HETATM   11  N   UNK N   1      88.380  15.231  42.672  0.00  0.00    -0.283 N 
ATOM     12  HN  UNK N   1      86.993  13.794  41.937  1.00  0.00     0.187 HD
ATOM     13  HN  UNK N   1      87.857  15.615  43.458  1.00  0.00     0.188 HD
ENDBRANCH   4   6
ENDBRANCH   1   4
BRANCH   1  14
HETATM   14  C   UNK N   1      92.197  15.450  44.373  0.00  0.00     0.075 A 
HETATM   15  C   UNK N   1      92.724  14.611  45.357  0.00  0.00     0.027 A 
HETATM   16  C   UNK N   1      93.972  14.016  45.156  0.00  0.00     0.030 A 
HETATM   17  C   UNK N   1      94.705  14.267  43.992  0.00  0.00     0.025 A 
HETATM   18  C   UNK N   1      94.158  15.105  43.015  0.00  0.00     0.030 A 
HETATM   19  C   UNK N   1      92.911  15.707  43.202  0.00  0.00     0.027 A 
BRANCH  17  20
HETATM   20  N   UNK N   1      95.922  13.646  43.781  0.00  0.00    -0.399 N 
HETATM   21  H   UNK N   1      95.985  12.636  43.762  0.00  0.00     0.156 HD
HETATM   22  H   UNK N   1      96.716  14.175  43.451  0.00  0.00     0.156 HD
ENDBRANCH  17  20
ENDBRANCH   1  14
TORSDOF 4
ENDMDL
MODEL 4
REMARK VINA RESULT:      -6.7      2.064      2.487
REMARK  4 active torsions:
REMARK  status: ('A' for Active; 'I' for Inactive)
REMARK    1  A    between atoms: S_1  and  N_4 
REMARK    2  A    between atoms: S_1  and  C_5 
REMARK    3  A    between atoms: N_4  and  C_6 
REMARK    4  A    between atoms: C_17  and  N_19 
ROOT
HETATM    1  S   UNK N   1      81.691  25.932  37.273  0.00  0.00     0.247 S 
HETATM    2  O   UNK N   1      81.655  24.680  36.548  0.00  0.00    -0.205 OA
HETATM    3  O   UNK N   1      81.438  26.002  38.695  0.00  0.00    -0.205 OA
ENDROOT
BRANCH   1   4
HETATM    4  N   UNK N   1      83.157  26.676  36.875  0.00  0.00    -0.159 NA
HETATM    5  H   UNK N   1      83.764  25.941  36.508  0.00  0.00     0.148 HD
BRANCH   4   6
HETATM    6  C   UNK N   1      83.814  27.194  38.064  0.00  0.00     0.153 A 
HETATM    7  S   UNK N   1      83.733  28.815  38.591  0.00  0.00    -0.044 SA
HETATM    8  C   UNK N   1      84.826  28.371  39.843  0.00  0.00     0.065 A 
HETATM    9  C   UNK N   1      85.257  29.359  40.862  0.00  0.00     0.078 C 
HETATM   10  N   UNK N   1      85.225  27.116  39.788  0.00  0.00    -0.297 N 
HETATM   11  N   UNK N   1      84.650  26.436  38.731  0.00  0.00    -0.283 N 
ATOM     12  HN  UNK N   1      85.882  26.698  40.446  1.00  0.00     0.187 HD
ATOM     13  HN  UNK N   1      84.851  25.463  38.500  1.00  0.00     0.188 HD
ENDBRANCH   4   6
ENDBRANCH   1   4
BRANCH   1  14
HETATM   14  C   UNK N   1      80.549  27.047  36.488  0.00  0.00     0.075 A 
HETATM   15  C   UNK N   1      79.804  26.599  35.395  0.00  0.00     0.027 A 
HETATM   16  C   UNK N   1      78.911  27.473  34.769  0.00  0.00     0.030 A 
HETATM   17  C   UNK N   1      78.771  28.791  35.212  0.00  0.00     0.025 A 
HETATM   18  C   UNK N   1      79.521  29.220  36.312  0.00  0.00     0.030 A 
HETATM   19  C   UNK N   1      80.418  28.358  36.948  0.00  0.00     0.027 A 
BRANCH  17  20
HETATM   20  N   UNK N   1      77.858  29.639  34.613  0.00  0.00    -0.399 N 
HETATM   21  H   UNK N   1      78.147  30.549  34.278  0.00  0.00     0.156 HD
HETATM   22  H   UNK N   1      76.953  29.295  34.324  0.00  0.00     0.156 HD
ENDBRANCH  17  20
ENDBRANCH   1  14
TORSDOF 4
ENDMDL
MODEL 5
REMARK VINA RESULT:      -6.6      9.212     11.393
REMARK  4 active torsions:
REMARK  status: ('A' for Active; 'I' for Inactive)
REMARK    1  A    between atoms: S_1  and  N_4 
REMARK    2  A    between atoms: S_1  and  C_5 
REMARK    3  A    between atoms: N_4  and  C_6 
REMARK    4  A    between atoms: C_17  and  N_19 
ROOT
HETATM    1  S   UNK N   1      81.017  33.726  45.025  0.00  0.00     0.247 S 
HETATM    2  O   UNK N   1      81.543  33.989  46.347  0.00  0.00    -0.205 OA
HETATM    3  O   UNK N   1      79.628  33.387  44.806  0.00  0.00    -0.205 OA
ENDROOT
BRANCH   1   4
HETATM    4  N   UNK N   1      81.490  35.025  44.052  0.00  0.00    -0.159 NA
HETATM    5  H   UNK N   1      82.184  35.550  44.587  0.00  0.00     0.148 HD
BRANCH   4   6
HETATM    6  C   UNK N   1      80.377  35.932  43.822  0.00  0.00     0.153 A 
HETATM    7  S   UNK N   1      79.692  36.951  45.008  0.00  0.00    -0.044 SA
HETATM    8  C   UNK N   1      78.537  37.411  43.819  0.00  0.00     0.065 A 
HETATM    9  C   UNK N   1      77.496  38.423  44.121  0.00  0.00     0.078 C 
HETATM   10  N   UNK N   1      78.671  36.782  42.668  0.00  0.00    -0.297 N 
HETATM   11  N   UNK N   1      79.734  35.900  42.680  0.00  0.00    -0.283 N 
ATOM     12  HN  UNK N   1      78.060  36.929  41.865  1.00  0.00     0.187 HD
ATOM     13  HN  UNK N   1      79.987  35.298  41.897  1.00  0.00     0.188 HD
ENDBRANCH   4   6
ENDBRANCH   1   4
BRANCH   1  14
HETATM   14  C   UNK N   1      81.988  32.422  44.305  0.00  0.00     0.075 A 
HETATM   15  C   UNK N   1      82.899  32.732  43.292  0.00  0.00     0.027 A 
HETATM   16  C   UNK N   1      83.660  31.711  42.717  0.00  0.00     0.030 A 
HETATM   17  C   UNK N   1      83.505  30.384  43.128  0.00  0.00     0.025 A 
HETATM   18  C   UNK N   1      82.592  30.094  44.147  0.00  0.00     0.030 A 
HETATM   19  C   UNK N   1      81.824  31.104  44.733  0.00  0.00     0.027 A 
BRANCH  17  20
HETATM   20  N   UNK N   1      84.287  29.384  42.582  0.00  0.00    -0.399 N 
HETATM   21  H   UNK N   1      84.408  28.506  43.068  0.00  0.00     0.156 HD
HETATM   22  H   UNK N   1      84.581  29.435  41.616  0.00  0.00     0.156 HD
ENDBRANCH  17  20
ENDBRANCH   1  14
TORSDOF 4
ENDMDL
MODEL 6
REMARK VINA RESULT:      -6.5     29.313     30.001
REMARK  4 active torsions:
REMARK  status: ('A' for Active; 'I' for Inactive)
REMARK    1  A    between atoms: S_1  and  N_4 
REMARK    2  A    between atoms: S_1  and  C_5 
REMARK    3  A    between atoms: N_4  and  C_6 
REMARK    4  A    between atoms: C_17  and  N_19 
ROOT
HETATM    1  S   UNK N   1      78.256   7.765  16.079  0.00  0.00     0.247 S 
HETATM    2  O   UNK N   1      78.170   9.208  16.139  0.00  0.00    -0.205 OA
HETATM    3  O   UNK N   1      79.009   7.083  15.050  0.00  0.00    -0.205 OA
ENDROOT
BRANCH   1   4
HETATM    4  N   UNK N   1      78.721   7.247  17.621  0.00  0.00    -0.159 NA
HETATM    5  H   UNK N   1      79.366   7.953  17.981  0.00  0.00     0.148 HD
BRANCH   4   6
HETATM    6  C   UNK N   1      79.474   6.005  17.545  0.00  0.00     0.153 A 
HETATM    7  S   UNK N   1      78.880   4.478  18.022  0.00  0.00    -0.044 SA
HETATM    8  C   UNK N   1      80.441   3.855  17.659  0.00  0.00     0.065 A 
HETATM    9  C   UNK N   1      80.735   2.408  17.801  0.00  0.00     0.078 C 
HETATM   10  N   UNK N   1      81.308   4.769  17.270  0.00  0.00    -0.297 N 
HETATM   11  N   UNK N   1      80.745   6.031  17.227  0.00  0.00    -0.283 N 
ATOM     12  HN  UNK N   1      82.278   4.569  17.030  1.00  0.00     0.187 HD
ATOM     13  HN  UNK N   1      81.257   6.877  16.978  1.00  0.00     0.188 HD
ENDBRANCH   4   6
ENDBRANCH   1   4
BRANCH   1  14
HETATM   14  C   UNK N   1      76.598   7.124  16.019  0.00  0.00     0.075 A 
HETATM   15  C   UNK N   1      75.954   7.019  14.784  0.00  0.00     0.027 A 
HETATM   16  C   UNK N   1      74.649   6.523  14.730  0.00  0.00     0.030 A 
HETATM   17  C   UNK N   1      73.976   6.151  15.898  0.00  0.00     0.025 A 
HETATM   18  C   UNK N   1      74.639   6.258  17.124  0.00  0.00     0.030 A 
HETATM   19  C   UNK N   1      75.945   6.752  17.194  0.00  0.00     0.027 A 
BRANCH  17  20
HETATM   20  N   UNK N   1      72.699   5.627  15.835  0.00  0.00    -0.399 N 
HETATM   21  H   UNK N   1      72.532   4.740  15.377  0.00  0.00     0.156 HD
HETATM   22  H   UNK N   1      71.959   6.011  16.405  0.00  0.00     0.156 HD
ENDBRANCH  17  20
ENDBRANCH   1  14
TORSDOF 4
ENDMDL
MODEL 7
REMARK VINA RESULT:      -6.5     30.096     30.779
REMARK  4 active torsions:
REMARK  status: ('A' for Active; 'I' for Inactive)
REMARK    1  A    between atoms: S_1  and  N_4 
REMARK    2  A    between atoms: S_1  and  C_5 
REMARK    3  A    between atoms: N_4  and  C_6 
REMARK    4  A    between atoms: C_17  and  N_19 
ROOT
HETATM    1  S   UNK N   1      76.404   7.872  15.229  0.00  0.00     0.247 S 
HETATM    2  O   UNK N   1      75.866   9.200  15.026  0.00  0.00    -0.205 OA
HETATM    3  O   UNK N   1      77.613   7.426  14.573  0.00  0.00    -0.205 OA
ENDROOT
BRANCH   1   4
HETATM    4  N   UNK N   1      76.494   7.641  16.902  0.00  0.00    -0.159 NA
HETATM    5  H   UNK N   1      76.735   8.547  17.306  0.00  0.00     0.148 HD
BRANCH   4   6
HETATM    6  C   UNK N   1      77.582   6.738  17.242  0.00  0.00     0.153 A 
HETATM    7  S   UNK N   1      77.404   5.065  17.527  0.00  0.00    -0.044 SA
HETATM    8  C   UNK N   1      79.080   5.041  17.909  0.00  0.00     0.065 A 
HETATM    9  C   UNK N   1      79.761   3.772  18.265  0.00  0.00     0.078 C 
HETATM   10  N   UNK N   1      79.660   6.224  17.862  0.00  0.00    -0.297 N 
HETATM   11  N   UNK N   1      78.775   7.219  17.494  0.00  0.00    -0.283 N 
ATOM     12  HN  UNK N   1      80.644   6.385  18.073  1.00  0.00     0.187 HD
ATOM     13  HN  UNK N   1      79.020   8.207  17.427  1.00  0.00     0.188 HD
ENDBRANCH   4   6
ENDBRANCH   1   4
BRANCH   1  14
HETATM   14  C   UNK N   1      75.129   6.703  14.818  0.00  0.00     0.075 A 
HETATM   15  C   UNK N   1      75.179   6.047  13.585  0.00  0.00     0.027 A 
HETATM   16  C   UNK N   1      74.176   5.132  13.253  0.00  0.00     0.030 A 
HETATM   17  C   UNK N   1      73.116   4.883  14.130  0.00  0.00     0.025 A 
HETATM   18  C   UNK N   1      73.086   5.545  15.362  0.00  0.00     0.030 A 
HETATM   19  C   UNK N   1      74.082   6.462  15.708  0.00  0.00     0.027 A 
BRANCH  17  20
HETATM   20  N   UNK N   1      72.147   3.949  13.812  0.00  0.00    -0.399 N 
HETATM   21  H   UNK N   1      71.594   3.517  14.540  0.00  0.00     0.156 HD
HETATM   22  H   UNK N   1      71.844   3.832  12.855  0.00  0.00     0.156 HD
ENDBRANCH  17  20
ENDBRANCH   1  14
TORSDOF 4
ENDMDL
MODEL 8
REMARK VINA RESULT:      -6.4     25.161     26.413
REMARK  4 active torsions:
REMARK  status: ('A' for Active; 'I' for Inactive)
REMARK    1  A    between atoms: S_1  and  N_4 
REMARK    2  A    between atoms: S_1  and  C_5 
REMARK    3  A    between atoms: N_4  and  C_6 
REMARK    4  A    between atoms: C_17  and  N_19 
ROOT
HETATM    1  S   UNK N   1      83.881  35.988  13.117  0.00  0.00     0.247 S 
HETATM    2  O   UNK N   1      82.569  35.552  12.691  0.00  0.00    -0.205 OA
HETATM    3  O   UNK N   1      84.917  35.050  13.490  0.00  0.00    -0.205 OA
ENDROOT
BRANCH   1   4
HETATM    4  N   UNK N   1      84.432  37.072  11.942  0.00  0.00    -0.159 NA
HETATM    5  H   UNK N   1      84.045  36.755  11.052  0.00  0.00     0.148 HD
BRANCH   4   6
HETATM    6  C   UNK N   1      85.878  37.002  11.810  0.00  0.00     0.153 A 
HETATM    7  S   UNK N   1      86.976  38.071  12.562  0.00  0.00    -0.044 SA
HETATM    8  C   UNK N   1      88.225  37.238  11.721  0.00  0.00     0.065 A 
HETATM    9  C   UNK N   1      89.648  37.610  11.911  0.00  0.00     0.078 C 
HETATM   10  N   UNK N   1      87.791  36.286  10.919  0.00  0.00    -0.297 N 
HETATM   11  N   UNK N   1      86.415  36.166  10.955  0.00  0.00    -0.283 N 
ATOM     12  HN  UNK N   1      88.400  35.708  10.341  1.00  0.00     0.187 HD
ATOM     13  HN  UNK N   1      85.883  35.507  10.386  1.00  0.00     0.188 HD
ENDBRANCH   4   6
ENDBRANCH   1   4
BRANCH   1  14
HETATM   14  C   UNK N   1      83.665  37.095  14.492  0.00  0.00     0.075 A 
HETATM   15  C   UNK N   1      82.452  37.773  14.636  0.00  0.00     0.027 A 
HETATM   16  C   UNK N   1      82.279  38.650  15.709  0.00  0.00     0.030 A 
HETATM   17  C   UNK N   1      83.310  38.871  16.627  0.00  0.00     0.025 A 
HETATM   18  C   UNK N   1      84.515  38.179  16.470  0.00  0.00     0.030 A 
HETATM   19  C   UNK N   1      84.704  37.298  15.401  0.00  0.00     0.027 A 
BRANCH  17  20
HETATM   20  N   UNK N   1      83.120  39.711  17.708  0.00  0.00    -0.399 N 
HETATM   21  H   UNK N   1      83.716  39.641  18.522  0.00  0.00     0.156 HD
HETATM   22  H   UNK N   1      82.525  40.524  17.626  0.00  0.00     0.156 HD
ENDBRANCH  17  20
ENDBRANCH   1  14
TORSDOF 4
ENDMDL
MODEL 9
REMARK VINA RESULT:      -6.4     26.465     28.511
REMARK  4 active torsions:
REMARK  status: ('A' for Active; 'I' for Inactive)
REMARK    1  A    between atoms: S_1  and  N_4 
REMARK    2  A    between atoms: S_1  and  C_5 
REMARK    3  A    between atoms: N_4  and  C_6 
REMARK    4  A    between atoms: C_17  and  N_19 
ROOT
HETATM    1  S   UNK N   1      87.703   1.091  28.066  0.00  0.00     0.247 S 
HETATM    2  O   UNK N   1      86.509   0.562  28.689  0.00  0.00    -0.205 OA
HETATM    3  O   UNK N   1      88.662   0.238  27.399  0.00  0.00    -0.205 OA
ENDROOT
BRANCH   1   4
HETATM    4  N   UNK N   1      87.200   2.351  27.056  0.00  0.00    -0.159 NA
HETATM    5  H   UNK N   1      86.362   2.747  27.484  0.00  0.00     0.148 HD
BRANCH   4   6
HETATM    6  C   UNK N   1      86.797   1.844  25.755  0.00  0.00     0.153 A 
HETATM    7  S   UNK N   1      85.291   1.112  25.421  0.00  0.00    -0.044 SA
HETATM    8  C   UNK N   1      85.879   0.832  23.830  0.00  0.00     0.065 A 
HETATM    9  C   UNK N   1      85.023   0.188  22.804  0.00  0.00     0.078 C 
HETATM   10  N   UNK N   1      87.123   1.225  23.639  0.00  0.00    -0.297 N 
HETATM   11  N   UNK N   1      87.665   1.796  24.775  0.00  0.00    -0.283 N 
ATOM     12  HN  UNK N   1      87.625   1.120  22.758  1.00  0.00     0.187 HD
ATOM     13  HN  UNK N   1      88.624   2.138  24.841  1.00  0.00     0.188 HD
ENDBRANCH   4   6
ENDBRANCH   1   4
BRANCH   1  14
HETATM   14  C   UNK N   1      88.596   2.011  29.298  0.00  0.00     0.075 A 
HETATM   15  C   UNK N   1      89.992   2.035  29.250  0.00  0.00     0.027 A 
HETATM   16  C   UNK N   1      90.699   2.750  30.220  0.00  0.00     0.030 A 
HETATM   17  C   UNK N   1      90.028   3.422  31.246  0.00  0.00     0.025 A 
HETATM   18  C   UNK N   1      88.630   3.391  31.273  0.00  0.00     0.030 A 
HETATM   19  C   UNK N   1      87.908   2.681  30.310  0.00  0.00     0.027 A 
BRANCH  17  20
HETATM   20  N   UNK N   1      90.732   4.159  32.180  0.00  0.00    -0.399 N 
HETATM   21  H   UNK N   1      91.742   4.195  32.148  0.00  0.00     0.156 HD
HETATM   22  H   UNK N   1      90.253   4.820  32.776  0.00  0.00     0.156 HD
ENDBRANCH  17  20
ENDBRANCH   1  14
TORSDOF 4
ENDMDL
