MODEL 1
REMARK VINA RESULT:      -7.3      0.000      0.000
REMARK  2 active torsions:
REMARK  status: ('A' for Active; 'I' for Inactive)
REMARK    1  A    between atoms: N_8  and  C_9 
REMARK    2  A    between atoms: C_9  and  N_10 
ROOT
HETATM    1  C   UNK N   1      90.576  13.540  42.125  0.00  0.00     0.545 C 
ENDROOT
BRANCH   1   2
HETATM    2  N   UNK N   1      90.934  14.914  42.488  0.00  0.00     0.131 N 
HETATM    3  C   UNK N   1      89.748  15.609  42.986  0.00  0.00     0.379 C 
HETATM    4  N   UNK N   1      90.020  17.017  43.210  0.00  0.00    -0.192 NA
HETATM    5  S   UNK N   1      91.159  17.312  44.401  0.00  0.00     0.212 S 
HETATM    6  H   UNK N   1      89.192  17.596  43.352  0.00  0.00     0.141 HD
HETATM    7  O   UNK N   1      91.486  18.717  44.338  0.00  0.00    -0.211 OA
HETATM    8  O   UNK N   1      90.664  16.711  45.620  0.00  0.00    -0.211 OA
HETATM    9  C   UNK N   1      92.509  16.349  43.778  0.00  0.00     0.188 C 
HETATM   10  C   UNK N   1      92.020  14.940  43.488  0.00  0.00     0.292 C 
ENDBRANCH   1   2
BRANCH   1  11
HETATM   11  N   UNK N   1      90.997  13.251  40.748  0.00  0.00     0.131 N 
HETATM   12  C   UNK N   1      92.226  12.457  40.754  0.00  0.00     0.379 C 
HETATM   13  N   UNK N   1      92.571  12.044  39.405  0.00  0.00    -0.192 NA
HETATM   14  S   UNK N   1      92.927  13.292  38.353  0.00  0.00     0.212 S 
HETATM   15  H   UNK N   1      91.926  11.367  39.002  0.00  0.00     0.141 HD
HETATM   16  C   UNK N   1      91.474  14.288  38.542  0.00  0.00     0.188 C 
HETATM   17  O   UNK N   1      94.058  14.025  38.879  0.00  0.00    -0.211 OA
HETATM   18  O   UNK N   1      92.932  12.730  37.022  0.00  0.00    -0.211 OA
HETATM   19  C   UNK N   1      91.206  14.517  40.018  0.00  0.00     0.292 C 
ENDBRANCH   1  11
TORSDOF 2
ENDMDL
MODEL 2
REMARK VINA RESULT:      -7.2      1.583      2.126
REMARK  2 active torsions:
REMARK  status: ('A' for Active; 'I' for Inactive)
REMARK    1  A    between atoms: N_8  and  C_9 
REMARK    2  A    between atoms: C_9  and  N_10 
ROOT
HETATM    1  C   UNK N   1      91.363  14.175  40.894  0.00  0.00     0.545 C 
ENDROOT
BRANCH   1   2
HETATM    2  N   UNK N   1      91.462  15.314  41.810  0.00  0.00     0.131 N 
HETATM    3  C   UNK N   1      90.120  15.734  42.209  0.00  0.00     0.379 C 
HETATM    4  N   UNK N   1      90.163  16.956  42.992  0.00  0.00    -0.192 NA
HETATM    5  S   UNK N   1      90.962  16.803  44.455  0.00  0.00     0.212 S 
HETATM    6  H   UNK N   1      89.262  17.415  43.120  0.00  0.00     0.141 HD
HETATM    7  O   UNK N   1      91.124  18.133  44.993  0.00  0.00    -0.211 OA
HETATM    8  O   UNK N   1      90.282  15.769  45.204  0.00  0.00    -0.211 OA
HETATM    9  C   UNK N   1      92.523  16.187  43.888  0.00  0.00     0.188 C 
HETATM   10  C   UNK N   1      92.285  14.983  42.991  0.00  0.00     0.292 C 
ENDBRANCH   1   2
BRANCH   1  11
HETATM   11  N   UNK N   1      92.690  13.591  40.660  0.00  0.00     0.131 N 
HETATM   12  C   UNK N   1      93.302  14.192  39.475  0.00  0.00     0.379 C 
HETATM   13  N   UNK N   1      94.668  13.727  39.318  0.00  0.00    -0.192 NA
HETATM   14  S   UNK N   1      94.831  12.088  39.043  0.00  0.00     0.212 S 
HETATM   15  H   UNK N   1      95.305  14.068  40.036  0.00  0.00     0.141 HD
HETATM   16  C   UNK N   1      93.917  11.446  40.418  0.00  0.00     0.188 C 
HETATM   17  O   UNK N   1      94.123  11.756  37.826  0.00  0.00    -0.211 OA
HETATM   18  O   UNK N   1      96.228  11.768  39.227  0.00  0.00    -0.211 OA
HETATM   19  C   UNK N   1      92.564  12.131  40.490  0.00  0.00     0.292 C 
ENDBRANCH   1  11
TORSDOF 2
ENDMDL
MODEL 3
REMARK VINA RESULT:      -7.1      1.725      6.555
REMARK  2 active torsions:
REMARK  status: ('A' for Active; 'I' for Inactive)
REMARK    1  A    between atoms: N_8  and  C_9 
REMARK    2  A    between atoms: C_9  and  N_10 
ROOT
HETATM    1  C   UNK N   1      93.167  13.904  42.263  0.00  0.00     0.545 C 
ENDROOT
BRANCH   1   2
HETATM    2  N   UNK N   1      92.866  13.601  40.861  0.00  0.00     0.131 N 
HETATM    3  C   UNK N   1      93.975  14.045  40.020  0.00  0.00     0.379 C 
HETATM    4  N   UNK N   1      93.653  13.908  38.611  0.00  0.00    -0.192 NA
HETATM    5  S   UNK N   1      93.412  12.326  38.116  0.00  0.00     0.212 S 
HETATM    6  H   UNK N   1      94.289  14.390  37.977  0.00  0.00     0.141 HD
HETATM    7  O   UNK N   1      92.877  12.377  36.776  0.00  0.00    -0.211 OA
HETATM    8  O   UNK N   1      94.628  11.599  38.411  0.00  0.00    -0.211 OA
HETATM    9  C   UNK N   1      92.145  11.839  39.254  0.00  0.00     0.188 C 
HETATM   10  C   UNK N   1      92.600  12.161  40.669  0.00  0.00     0.292 C 
ENDBRANCH   1   2
BRANCH   1  11
HETATM   11  N   UNK N   1      92.639  15.226  42.624  0.00  0.00     0.131 N 
HETATM   12  C   UNK N   1      93.252  15.689  43.869  0.00  0.00     0.379 C 
HETATM   13  N   UNK N   1      92.846  17.052  44.159  0.00  0.00    -0.192 NA
HETATM   14  S   UNK N   1      91.212  17.260  44.437  0.00  0.00     0.212 S 
HETATM   15  H   UNK N   1      93.222  17.742  43.511  0.00  0.00     0.141 HD
HETATM   16  C   UNK N   1      90.547  16.518  42.972  0.00  0.00     0.188 C 
HETATM   17  O   UNK N   1      90.835  16.451  45.575  0.00  0.00    -0.211 OA
HETATM   18  O   UNK N   1      90.956  18.682  44.391  0.00  0.00    -0.211 OA
HETATM   19  C   UNK N   1      91.173  15.150  42.770  0.00  0.00     0.292 C 
ENDBRANCH   1  11
TORSDOF 2
ENDMDL
MODEL 4
REMARK VINA RESULT:      -6.6      1.289      6.477
REMARK  2 active torsions:
REMARK  status: ('A' for Active; 'I' for Inactive)
REMARK    1  A    between atoms: N_8  and  C_9 
REMARK    2  A    between atoms: C_9  and  N_10 
ROOT
HETATM    1  C   UNK N   1      90.043  14.172  40.567  0.00  0.00     0.545 C 
ENDROOT
BRANCH   1   2
HETATM    2  N   UNK N   1      91.295  13.686  39.980  0.00  0.00     0.131 N 
HETATM    3  C   UNK N   1      91.256  12.228  39.893  0.00  0.00     0.379 C 
HETATM    4  N   UNK N   1      92.535  11.693  39.464  0.00  0.00    -0.192 NA
HETATM    5  S   UNK N   1      92.984  12.153  37.918  0.00  0.00     0.212 S 
HETATM    6  H   UNK N   1      92.642  10.687  39.585  0.00  0.00     0.141 HD
HETATM    7  O   UNK N   1      94.357  11.746  37.734  0.00  0.00    -0.211 OA
HETATM    8  O   UNK N   1      91.942  11.702  37.021  0.00  0.00    -0.211 OA
HETATM    9  C   UNK N   1      92.894  13.914  38.084  0.00  0.00     0.188 C 
HETATM   10  C   UNK N   1      91.535  14.289  38.654  0.00  0.00     0.292 C 
ENDBRANCH   1   2
BRANCH   1  11
HETATM   11  N   UNK N   1      90.228  14.465  41.994  0.00  0.00     0.131 N 
HETATM   12  C   UNK N   1      89.166  15.353  42.467  0.00  0.00     0.379 C 
HETATM   13  N   UNK N   1      89.257  15.534  43.904  0.00  0.00    -0.192 NA
HETATM   14  S   UNK N   1      90.650  16.286  44.436  0.00  0.00     0.212 S 
HETATM   15  H   UNK N   1      89.038  14.696  44.441  0.00  0.00     0.141 HD
HETATM   16  C   UNK N   1      91.874  15.257  43.677  0.00  0.00     0.188 C 
HETATM   17  O   UNK N   1      90.717  17.601  43.835  0.00  0.00    -0.211 OA
HETATM   18  O   UNK N   1      90.710  16.097  45.867  0.00  0.00    -0.211 OA
HETATM   19  C   UNK N   1      91.550  15.088  42.203  0.00  0.00     0.292 C 
ENDBRANCH   1  11
TORSDOF 2
ENDMDL
MODEL 5
REMARK VINA RESULT:      -6.6      1.992      2.643
REMARK  2 active torsions:
REMARK  status: ('A' for Active; 'I' for Inactive)
REMARK    1  A    between atoms: N_8  and  C_9 
REMARK    2  A    between atoms: C_9  and  N_10 
ROOT
HETATM    1  C   UNK N   1      93.651  14.725  42.176  0.00  0.00     0.545 C 
ENDROOT
BRANCH   1   2
HETATM    2  N   UNK N   1      92.297  14.620  42.725  0.00  0.00     0.131 N 
HETATM    3  C   UNK N   1      92.372  14.204  44.125  0.00  0.00     0.379 C 
HETATM    4  N   UNK N   1      91.051  13.936  44.664  0.00  0.00    -0.192 NA
HETATM    5  S   UNK N   1      90.051  15.278  44.721  0.00  0.00     0.212 S 
HETATM    6  H   UNK N   1      91.045  13.444  45.557  0.00  0.00     0.141 HD
HETATM    7  O   UNK N   1      88.726  14.807  45.050  0.00  0.00    -0.211 OA
HETATM    8  O   UNK N   1      90.718  16.271  45.536  0.00  0.00    -0.211 OA
HETATM    9  C   UNK N   1      90.111  15.776  43.022  0.00  0.00     0.188 C 
HETATM   10  C   UNK N   1      91.563  15.895  42.592  0.00  0.00     0.292 C 
ENDBRANCH   1   2
BRANCH   1  11
HETATM   11  N   UNK N   1      93.868  13.693  41.153  0.00  0.00     0.131 N 
HETATM   12  C   UNK N   1      94.776  14.192  40.120  0.00  0.00     0.379 C 
HETATM   13  N   UNK N   1      95.110  13.134  39.184  0.00  0.00    -0.192 NA
HETATM   14  S   UNK N   1      93.822  12.536  38.304  0.00  0.00     0.212 S 
HETATM   15  H   UNK N   1      95.686  12.395  39.582  0.00  0.00     0.141 HD
HETATM   16  C   UNK N   1      92.708  12.124  39.617  0.00  0.00     0.188 C 
HETATM   17  O   UNK N   1      93.249  13.622  37.538  0.00  0.00    -0.211 OA
HETATM   18  O   UNK N   1      94.272  11.314  37.679  0.00  0.00    -0.211 OA
HETATM   19  C   UNK N   1      92.574  13.308  40.557  0.00  0.00     0.292 C 
ENDBRANCH   1  11
TORSDOF 2
ENDMDL
MODEL 6
REMARK VINA RESULT:      -6.5     30.324     32.917
REMARK  2 active torsions:
REMARK  status: ('A' for Active; 'I' for Inactive)
REMARK    1  A    between atoms: N_8  and  C_9 
REMARK    2  A    between atoms: C_9  and  N_10 
ROOT
HETATM    1  C   UNK N   1      74.224   5.113  16.649  0.00  0.00     0.545 C 
ENDROOT
BRANCH   1   2
HETATM    2  N   UNK N   1      75.044   6.327  16.628  0.00  0.00     0.131 N 
HETATM    3  C   UNK N   1      76.430   5.982  16.941  0.00  0.00     0.379 C 
HETATM    4  N   UNK N   1      77.248   7.172  17.086  0.00  0.00    -0.192 NA
HETATM    5  S   UNK N   1      77.391   8.077  15.685  0.00  0.00     0.212 S 
HETATM    6  H   UNK N   1      78.162   7.015  17.508  0.00  0.00     0.141 HD
HETATM    7  O   UNK N   1      78.022   9.325  16.047  0.00  0.00    -0.211 OA
HETATM    8  O   UNK N   1      77.964   7.212  14.677  0.00  0.00    -0.211 OA
HETATM    9  C   UNK N   1      75.679   8.350  15.320  0.00  0.00     0.188 C 
HETATM   10  C   UNK N   1      74.953   7.014  15.324  0.00  0.00     0.292 C 
ENDBRANCH   1   2
BRANCH   1  11
HETATM   11  N   UNK N   1      73.916   4.682  15.279  0.00  0.00     0.131 N 
HETATM   12  C   UNK N   1      72.488   4.386  15.154  0.00  0.00     0.379 C 
HETATM   13  N   UNK N   1      72.148   4.098  13.773  0.00  0.00    -0.192 NA
HETATM   14  S   UNK N   1      72.878   2.739  13.133  0.00  0.00     0.212 S 
HETATM   15  H   UNK N   1      72.216   4.905  13.154  0.00  0.00     0.141 HD
HETATM   16  C   UNK N   1      74.576   3.098  13.484  0.00  0.00     0.188 C 
HETATM   17  O   UNK N   1      72.478   1.592  13.920  0.00  0.00    -0.211 OA
HETATM   18  O   UNK N   1      72.681   2.790  11.702  0.00  0.00    -0.211 OA
HETATM   19  C   UNK N   1      74.719   3.490  14.943  0.00  0.00     0.292 C 
ENDBRANCH   1  11
TORSDOF 2
ENDMDL
MODEL 7
REMARK VINA RESULT:      -6.5     29.828     32.528
REMARK  2 active torsions:
REMARK  status: ('A' for Active; 'I' for Inactive)
REMARK    1  A    between atoms: N_8  and  C_9 
REMARK    2  A    between atoms: C_9  and  N_10 
ROOT
HETATM    1  C   UNK N   1      73.989   6.691  15.628  0.00  0.00     0.545 C 
ENDROOT
BRANCH   1   2
HETATM    2  N   UNK N   1      73.343   5.388  15.811  0.00  0.00     0.131 N 
HETATM    3  C   UNK N   1      72.737   4.966  14.550  0.00  0.00     0.379 C 
HETATM    4  N   UNK N   1      71.953   3.756  14.723  0.00  0.00    -0.192 NA
HETATM    5  S   UNK N   1      72.852   2.419  15.177  0.00  0.00     0.212 S 
HETATM    6  H   UNK N   1      71.338   3.529  13.943  0.00  0.00     0.141 HD
HETATM    7  O   UNK N   1      71.916   1.378  15.534  0.00  0.00    -0.211 OA
HETATM    8  O   UNK N   1      73.850   2.210  14.151  0.00  0.00    -0.211 OA
HETATM    9  C   UNK N   1      73.633   3.055  16.634  0.00  0.00     0.188 C 
HETATM   10  C   UNK N   1      74.303   4.377  16.300  0.00  0.00     0.292 C 
ENDBRANCH   1   2
BRANCH   1  11
HETATM   11  N   UNK N   1      75.447   6.559  15.746  0.00  0.00     0.131 N 
HETATM   12  C   UNK N   1      75.920   7.262  16.939  0.00  0.00     0.379 C 
HETATM   13  N   UNK N   1      77.336   7.018  17.144  0.00  0.00    -0.192 NA
HETATM   14  S   UNK N   1      78.335   7.598  15.937  0.00  0.00     0.212 S 
HETATM   15  H   UNK N   1      77.557   6.059  17.406  0.00  0.00     0.141 HD
HETATM   16  C   UNK N   1      77.587   6.844  14.520  0.00  0.00     0.188 C 
HETATM   17  O   UNK N   1      78.156   9.030  15.845  0.00  0.00    -0.211 OA
HETATM   18  O   UNK N   1      79.635   7.002  16.146  0.00  0.00    -0.211 OA
HETATM   19  C   UNK N   1      76.092   7.106  14.538  0.00  0.00     0.292 C 
ENDBRANCH   1  11
TORSDOF 2
ENDMDL
MODEL 8
REMARK VINA RESULT:      -6.4      3.092      3.399
REMARK  2 active torsions:
REMARK  status: ('A' for Active; 'I' for Inactive)
REMARK    1  A    between atoms: N_8  and  C_9 
REMARK    2  A    between atoms: C_9  and  N_10 
ROOT
HETATM    1  C   UNK N   1      91.245  14.098  41.278  0.00  0.00     0.545 C 
ENDROOT
BRANCH   1   2
HETATM    2  N   UNK N   1      91.365  15.331  42.061  0.00  0.00     0.131 N 
HETATM    3  C   UNK N   1      90.046  15.727  42.549  0.00  0.00     0.379 C 
HETATM    4  N   UNK N   1      90.093  17.026  43.197  0.00  0.00    -0.192 NA
HETATM    5  S   UNK N   1      91.036  17.065  44.579  0.00  0.00     0.212 S 
HETATM    6  H   UNK N   1      89.184  17.452  43.369  0.00  0.00     0.141 HD
HETATM    7  O   UNK N   1      91.172  18.452  44.962  0.00  0.00    -0.211 OA
HETATM    8  O   UNK N   1      90.492  16.085  45.494  0.00  0.00    -0.211 OA
HETATM    9  C   UNK N   1      92.569  16.468  43.922  0.00  0.00     0.188 C 
HETATM   10  C   UNK N   1      92.315  15.166  43.180  0.00  0.00     0.292 C 
ENDBRANCH   1   2
BRANCH   1  11
HETATM   11  N   UNK N   1      89.845  13.656  41.236  0.00  0.00     0.131 N 
HETATM   12  C   UNK N   1      89.741  12.271  41.695  0.00  0.00     0.379 C 
HETATM   13  N   UNK N   1      88.349  11.871  41.793  0.00  0.00    -0.192 NA
HETATM   14  S   UNK N   1      87.513  11.858  40.347  0.00  0.00     0.212 S 
HETATM   15  H   UNK N   1      87.835  12.341  42.536  0.00  0.00     0.141 HD
HETATM   16  C   UNK N   1      87.838  13.504  39.780  0.00  0.00     0.188 C 
HETATM   17  O   UNK N   1      88.164  10.926  39.451  0.00  0.00    -0.211 OA
HETATM   18  O   UNK N   1      86.110  11.751  40.674  0.00  0.00    -0.211 OA
HETATM   19  C   UNK N   1      89.329  13.781  39.859  0.00  0.00     0.292 C 
ENDBRANCH   1  11
TORSDOF 2
ENDMDL
MODEL 9
REMARK VINA RESULT:      -6.3     31.144     32.535
REMARK  2 active torsions:
REMARK  status: ('A' for Active; 'I' for Inactive)
REMARK    1  A    between atoms: N_8  and  C_9 
REMARK    2  A    between atoms: C_9  and  N_10 
ROOT
HETATM    1  C   UNK N   1      73.708  41.301  31.154  0.00  0.00     0.545 C 
ENDROOT
BRANCH   1   2
HETATM    2  N   UNK N   1      74.878  40.639  31.737  0.00  0.00     0.131 N 
HETATM    3  C   UNK N   1      76.030  41.536  31.660  0.00  0.00     0.379 C 
HETATM    4  N   UNK N   1      77.247  40.865  32.082  0.00  0.00    -0.192 NA
HETATM    5  S   UNK N   1      77.243  40.390  33.688  0.00  0.00     0.212 S 
HETATM    6  H   UNK N   1      78.109  41.358  31.854  0.00  0.00     0.141 HD
HETATM    7  O   UNK N   1      78.397  39.545  33.884  0.00  0.00    -0.211 OA
HETATM    8  O   UNK N   1      77.043  41.583  34.483  0.00  0.00    -0.211 OA
HETATM    9  C   UNK N   1      75.766  39.412  33.714  0.00  0.00     0.188 C 
HETATM   10  C   UNK N   1      74.623  40.226  33.131  0.00  0.00     0.292 C 
ENDBRANCH   1   2
BRANCH   1  11
HETATM   11  N   UNK N   1      73.383  40.707  29.850  0.00  0.00     0.131 N 
HETATM   12  C   UNK N   1      74.245  39.553  29.595  0.00  0.00     0.379 C 
HETATM   13  N   UNK N   1      73.837  38.874  28.378  0.00  0.00    -0.192 NA
HETATM   14  S   UNK N   1      73.983  39.777  26.981  0.00  0.00     0.212 S 
HETATM   15  H   UNK N   1      72.934  38.407  28.448  0.00  0.00     0.141 HD
HETATM   16  C   UNK N   1      73.066  41.220  27.441  0.00  0.00     0.188 C 
HETATM   17  O   UNK N   1      75.372  40.147  26.819  0.00  0.00    -0.211 OA
HETATM   18  O   UNK N   1      73.254  39.076  25.949  0.00  0.00    -0.211 OA
HETATM   19  C   UNK N   1      73.552  41.719  28.790  0.00  0.00     0.292 C 
ENDBRANCH   1  11
TORSDOF 2
ENDMDL
