MODEL 1
REMARK VINA RESULT:      -7.1      0.000      0.000
REMARK  7 active torsions:
REMARK  status: ('A' for Active; 'I' for Inactive)
REMARK    1  A    between atoms: O_1  and  C_2 
REMARK    2  A    between atoms: C_5  and  O_7 
REMARK    3  A    between atoms: C_6  and  C_9 
REMARK    4  A    between atoms: C_9  and  O_10 
REMARK    5  A    between atoms: C_9  and  C_11 
REMARK    6  A    between atoms: C_11  and  N_12 
REMARK    7  A    between atoms: N_12  and  C_13 
ROOT
HETATM    1  C   UNK N   1      91.145  24.896  47.619  0.00  0.00     0.069 A 
HETATM    2  C   UNK N   1      89.920  25.277  47.081  0.00  0.00     0.073 A 
HETATM    3  C   UNK N   1      92.343  25.318  47.049  0.00  0.00     0.046 A 
HETATM    4  C   UNK N   1      89.911  26.092  45.954  0.00  0.00     0.069 A 
HETATM    5  C   UNK N   1      92.335  26.143  45.913  0.00  0.00    -0.023 A 
HETATM    6  C   UNK N   1      91.100  26.524  45.369  0.00  0.00     0.046 A 
ENDROOT
BRANCH   5   7
HETATM    7  C   UNK N   1      93.625  26.604  45.272  0.00  0.00     0.179 C 
BRANCH   7   8
HETATM    8  O   UNK N   1      93.346  27.192  43.992  0.00  0.00    -0.389 OA
HETATM    9  H   UNK N   1      92.451  26.905  43.744  0.00  0.00     0.210 HD
ENDBRANCH   7   8
BRANCH   7  10
HETATM   10  C   UNK N   1      94.388  27.625  46.151  0.00  0.00     0.306 C 
BRANCH  10  11
HETATM   11  N   UNK N   1      95.731  27.117  46.478  0.00  0.00     0.094 N 
HETATM   12  H   UNK N   1      96.402  27.838  46.193  0.00  0.00     0.317 HD
BRANCH  11  13
HETATM   13  C   UNK N   1      95.961  26.747  47.883  0.00  0.00     0.147 C 
HETATM   14  C   UNK N   1      95.969  25.224  48.091  0.00  0.00     0.048 C 
HETATM   15  C   UNK N   1      94.927  27.399  48.819  0.00  0.00     0.048 C 
HETATM   16  C   UNK N   1      97.355  27.296  48.243  0.00  0.00     0.048 C 
ENDBRANCH  11  13
ENDBRANCH  10  11
ENDBRANCH   7  10
ENDBRANCH   5   7
BRANCH   1  17
HETATM   17  O   UNK N   1      91.221  24.097  48.723  0.00  0.00    -0.361 OA
HETATM   18  H   UNK N   1      90.980  24.616  49.507  0.00  0.00     0.217 HD
ENDBRANCH   1  17
BRANCH   4  19
HETATM   19  O   UNK N   1      88.744  26.499  45.379  0.00  0.00    -0.361 OA
HETATM   20  H   UNK N   1      88.906  26.708  44.444  0.00  0.00     0.217 HD
ENDBRANCH   4  19
TORSDOF 7
ENDMDL
MODEL 2
REMARK VINA RESULT:      -6.6      2.006      3.555
REMARK  7 active torsions:
REMARK  status: ('A' for Active; 'I' for Inactive)
REMARK    1  A    between atoms: O_1  and  C_2 
REMARK    2  A    between atoms: C_5  and  O_7 
REMARK    3  A    between atoms: C_6  and  C_9 
REMARK    4  A    between atoms: C_9  and  O_10 
REMARK    5  A    between atoms: C_9  and  C_11 
REMARK    6  A    between atoms: C_11  and  N_12 
REMARK    7  A    between atoms: N_12  and  C_13 
ROOT
HETATM    1  C   UNK N   1      92.628  26.867  44.717  0.00  0.00     0.069 A 
HETATM    2  C   UNK N   1      91.509  26.233  45.248  0.00  0.00     0.073 A 
HETATM    3  C   UNK N   1      93.779  27.050  45.480  0.00  0.00     0.046 A 
HETATM    4  C   UNK N   1      91.559  25.782  46.562  0.00  0.00     0.069 A 
HETATM    5  C   UNK N   1      93.831  26.592  46.806  0.00  0.00    -0.023 A 
HETATM    6  C   UNK N   1      92.701  25.956  47.341  0.00  0.00     0.046 A 
ENDROOT
BRANCH   5   7
HETATM    7  C   UNK N   1      95.068  26.791  47.654  0.00  0.00     0.179 C 
BRANCH   7   8
HETATM    8  O   UNK N   1      94.802  26.372  49.001  0.00  0.00    -0.389 OA
HETATM    9  H   UNK N   1      94.936  25.409  49.024  0.00  0.00     0.210 HD
ENDBRANCH   7   8
BRANCH   7  10
HETATM   10  C   UNK N   1      96.288  26.012  47.106  0.00  0.00     0.306 C 
BRANCH  10  11
HETATM   11  N   UNK N   1      97.326  26.948  46.639  0.00  0.00     0.094 N 
HETATM   12  H   UNK N   1      97.235  27.801  47.201  0.00  0.00     0.317 HD
BRANCH  11  13
HETATM   13  C   UNK N   1      98.713  26.460  46.693  0.00  0.00     0.147 C 
HETATM   14  C   UNK N   1      99.737  27.592  46.506  0.00  0.00     0.048 C 
HETATM   15  C   UNK N   1      98.965  25.349  45.658  0.00  0.00     0.048 C 
HETATM   16  C   UNK N   1      98.898  25.863  48.100  0.00  0.00     0.048 C 
ENDBRANCH  11  13
ENDBRANCH  10  11
ENDBRANCH   7  10
ENDBRANCH   5   7
BRANCH   1  17
HETATM   17  O   UNK N   1      92.643  27.333  43.435  0.00  0.00    -0.361 OA
HETATM   18  H   UNK N   1      91.734  27.539  43.162  0.00  0.00     0.217 HD
ENDBRANCH   1  17
BRANCH   4  19
HETATM   19  O   UNK N   1      90.495  25.155  47.141  0.00  0.00    -0.361 OA
HETATM   20  H   UNK N   1      90.208  24.424  46.569  0.00  0.00     0.217 HD
ENDBRANCH   4  19
TORSDOF 7
ENDMDL
MODEL 3
REMARK VINA RESULT:      -6.5      1.827      3.208
REMARK  7 active torsions:
REMARK  status: ('A' for Active; 'I' for Inactive)
REMARK    1  A    between atoms: O_1  and  C_2 
REMARK    2  A    between atoms: C_5  and  O_7 
REMARK    3  A    between atoms: C_6  and  C_9 
REMARK    4  A    between atoms: C_9  and  O_10 
REMARK    5  A    between atoms: C_9  and  C_11 
REMARK    6  A    between atoms: C_11  and  N_12 
REMARK    7  A    between atoms: N_12  and  C_13 
ROOT
HETATM    1  C   UNK N   1      92.538  26.755  44.720  0.00  0.00     0.069 A 
HETATM    2  C   UNK N   1      91.351  26.292  45.278  0.00  0.00     0.073 A 
HETATM    3  C   UNK N   1      93.761  26.542  45.353  0.00  0.00     0.046 A 
HETATM    4  C   UNK N   1      91.406  25.608  46.488  0.00  0.00     0.069 A 
HETATM    5  C   UNK N   1      93.816  25.849  46.572  0.00  0.00    -0.023 A 
HETATM    6  C   UNK N   1      92.619  25.385  47.135  0.00  0.00     0.046 A 
ENDROOT
BRANCH   5   7
HETATM    7  C   UNK N   1      95.133  25.617  47.280  0.00  0.00     0.179 C 
BRANCH   7   8
HETATM    8  O   UNK N   1      96.031  24.909  46.412  0.00  0.00    -0.389 OA
HETATM    9  H   UNK N   1      95.478  24.439  45.764  0.00  0.00     0.210 HD
ENDBRANCH   7   8
BRANCH   7  10
HETATM   10  C   UNK N   1      95.796  26.938  47.738  0.00  0.00     0.306 C 
BRANCH  10  11
HETATM   11  N   UNK N   1      95.517  27.185  49.164  0.00  0.00     0.094 N 
HETATM   12  H   UNK N   1      96.410  27.420  49.608  0.00  0.00     0.317 HD
BRANCH  11  13
HETATM   13  C   UNK N   1      94.521  28.227  49.460  0.00  0.00     0.147 C 
HETATM   14  C   UNK N   1      93.194  27.638  49.963  0.00  0.00     0.048 C 
HETATM   15  C   UNK N   1      94.266  29.131  48.241  0.00  0.00     0.048 C 
HETATM   16  C   UNK N   1      95.130  29.088  50.583  0.00  0.00     0.048 C 
ENDBRANCH  11  13
ENDBRANCH  10  11
ENDBRANCH   7  10
ENDBRANCH   5   7
BRANCH   1  17
HETATM   17  O   UNK N   1      92.552  27.434  43.537  0.00  0.00    -0.361 OA
HETATM   18  H   UNK N   1      93.465  27.486  43.212  0.00  0.00     0.217 HD
ENDBRANCH   1  17
BRANCH   4  19
HETATM   19  O   UNK N   1      90.277  25.129  47.086  0.00  0.00    -0.361 OA
HETATM   20  H   UNK N   1      90.308  24.159  47.092  0.00  0.00     0.217 HD
ENDBRANCH   4  19
TORSDOF 7
ENDMDL
MODEL 4
REMARK VINA RESULT:      -6.1     11.177     12.887
REMARK  7 active torsions:
REMARK  status: ('A' for Active; 'I' for Inactive)
REMARK    1  A    between atoms: O_1  and  C_2 
REMARK    2  A    between atoms: C_5  and  O_7 
REMARK    3  A    between atoms: C_6  and  C_9 
REMARK    4  A    between atoms: C_9  and  O_10 
REMARK    5  A    between atoms: C_9  and  C_11 
REMARK    6  A    between atoms: C_11  and  N_12 
REMARK    7  A    between atoms: N_12  and  C_13 
ROOT
HETATM    1  C   UNK N   1      92.835  16.026  44.105  0.00  0.00     0.069 A 
HETATM    2  C   UNK N   1      92.432  17.329  43.832  0.00  0.00     0.073 A 
HETATM    3  C   UNK N   1      91.904  15.031  44.396  0.00  0.00     0.046 A 
HETATM    4  C   UNK N   1      91.073  17.625  43.856  0.00  0.00     0.069 A 
HETATM    5  C   UNK N   1      90.533  15.329  44.417  0.00  0.00    -0.023 A 
HETATM    6  C   UNK N   1      90.127  16.644  44.145  0.00  0.00     0.046 A 
ENDROOT
BRANCH   5   7
HETATM    7  C   UNK N   1      89.506  14.266  44.741  0.00  0.00     0.179 C 
BRANCH   7   8
HETATM    8  O   UNK N   1      88.259  14.887  45.086  0.00  0.00    -0.389 OA
HETATM    9  H   UNK N   1      88.408  15.848  45.049  0.00  0.00     0.210 HD
ENDBRANCH   7   8
BRANCH   7  10
HETATM   10  C   UNK N   1      89.283  13.285  43.564  0.00  0.00     0.306 C 
BRANCH  10  11
HETATM   11  N   UNK N   1      88.603  13.969  42.450  0.00  0.00     0.094 N 
HETATM   12  H   UNK N   1      88.524  14.957  42.708  0.00  0.00     0.317 HD
BRANCH  11  13
HETATM   13  C   UNK N   1      89.239  13.847  41.128  0.00  0.00     0.147 C 
HETATM   14  C   UNK N   1      90.172  15.030  40.820  0.00  0.00     0.048 C 
HETATM   15  C   UNK N   1      88.196  13.695  40.008  0.00  0.00     0.048 C 
HETATM   16  C   UNK N   1      90.084  12.560  41.182  0.00  0.00     0.048 C 
ENDBRANCH  11  13
ENDBRANCH  10  11
ENDBRANCH   7  10
ENDBRANCH   5   7
BRANCH   1  17
HETATM   17  O   UNK N   1      94.153  15.671  44.098  0.00  0.00    -0.361 OA
HETATM   18  H   UNK N   1      94.696  16.469  44.195  0.00  0.00     0.217 HD
ENDBRANCH   1  17
BRANCH   4  19
HETATM   19  O   UNK N   1      90.614  18.883  43.599  0.00  0.00    -0.361 OA
HETATM   20  H   UNK N   1      89.775  19.018  44.069  0.00  0.00     0.217 HD
ENDBRANCH   4  19
TORSDOF 7
ENDMDL
MODEL 5
REMARK VINA RESULT:      -6.0     12.211     13.252
REMARK  7 active torsions:
REMARK  status: ('A' for Active; 'I' for Inactive)
REMARK    1  A    between atoms: O_1  and  C_2 
REMARK    2  A    between atoms: C_5  and  O_7 
REMARK    3  A    between atoms: C_6  and  C_9 
REMARK    4  A    between atoms: C_9  and  O_10 
REMARK    5  A    between atoms: C_9  and  C_11 
REMARK    6  A    between atoms: C_11  and  N_12 
REMARK    7  A    between atoms: N_12  and  C_13 
ROOT
HETATM    1  C   UNK N   1      93.454  13.262  41.115  0.00  0.00     0.069 A 
HETATM    2  C   UNK N   1      93.865  13.217  39.786  0.00  0.00     0.073 A 
HETATM    3  C   UNK N   1      92.251  13.864  41.475  0.00  0.00     0.046 A 
HETATM    4  C   UNK N   1      93.048  13.787  38.816  0.00  0.00     0.069 A 
HETATM    5  C   UNK N   1      91.425  14.437  40.495  0.00  0.00    -0.023 A 
HETATM    6  C   UNK N   1      91.841  14.393  39.157  0.00  0.00     0.046 A 
ENDROOT
BRANCH   5   7
HETATM    7  C   UNK N   1      90.119  15.105  40.867  0.00  0.00     0.179 C 
BRANCH   7   8
HETATM    8  O   UNK N   1      89.019  14.309  40.400  0.00  0.00    -0.389 OA
HETATM    9  H   UNK N   1      89.396  13.464  40.100  0.00  0.00     0.210 HD
ENDBRANCH   7   8
BRANCH   7  10
HETATM   10  C   UNK N   1      89.983  15.323  42.393  0.00  0.00     0.306 C 
BRANCH  10  11
HETATM   11  N   UNK N   1      90.392  16.691  42.754  0.00  0.00     0.094 N 
HETATM   12  H   UNK N   1      89.536  17.245  42.850  0.00  0.00     0.317 HD
BRANCH  11  13
HETATM   13  C   UNK N   1      91.213  16.825  43.969  0.00  0.00     0.147 C 
HETATM   14  C   UNK N   1      91.143  18.240  44.566  0.00  0.00     0.048 C 
HETATM   15  C   UNK N   1      92.679  16.436  43.709  0.00  0.00     0.048 C 
HETATM   16  C   UNK N   1      90.622  15.835  44.990  0.00  0.00     0.048 C 
ENDBRANCH  11  13
ENDBRANCH  10  11
ENDBRANCH   7  10
ENDBRANCH   5   7
BRANCH   1  17
HETATM   17  O   UNK N   1      94.211  12.722  42.113  0.00  0.00    -0.361 OA
HETATM   18  H   UNK N   1      93.659  12.610  42.904  0.00  0.00     0.217 HD
ENDBRANCH   1  17
BRANCH   4  19
HETATM   19  O   UNK N   1      93.395  13.776  37.497  0.00  0.00    -0.361 OA
HETATM   20  H   UNK N   1      92.676  14.171  36.976  0.00  0.00     0.217 HD
ENDBRANCH   4  19
TORSDOF 7
ENDMDL
MODEL 6
REMARK VINA RESULT:      -6.0     12.976     13.941
REMARK  7 active torsions:
REMARK  status: ('A' for Active; 'I' for Inactive)
REMARK    1  A    between atoms: O_1  and  C_2 
REMARK    2  A    between atoms: C_5  and  O_7 
REMARK    3  A    between atoms: C_6  and  C_9 
REMARK    4  A    between atoms: C_9  and  O_10 
REMARK    5  A    between atoms: C_9  and  C_11 
REMARK    6  A    between atoms: C_11  and  N_12 
REMARK    7  A    between atoms: N_12  and  C_13 
ROOT
HETATM    1  C   UNK N   1      92.044  12.664  37.769  0.00  0.00     0.069 A 
HETATM    2  C   UNK N   1      93.407  12.797  38.013  0.00  0.00     0.073 A 
HETATM    3  C   UNK N   1      91.106  13.351  38.536  0.00  0.00     0.046 A 
HETATM    4  C   UNK N   1      93.821  13.632  39.045  0.00  0.00     0.069 A 
HETATM    5  C   UNK N   1      91.524  14.197  39.575  0.00  0.00    -0.023 A 
HETATM    6  C   UNK N   1      92.898  14.327  39.823  0.00  0.00     0.046 A 
ENDROOT
BRANCH   5   7
HETATM    7  C   UNK N   1      90.521  14.944  40.427  0.00  0.00     0.179 C 
BRANCH   7   8
HETATM    8  O   UNK N   1      89.218  14.362  40.263  0.00  0.00    -0.389 OA
HETATM    9  H   UNK N   1      89.273  13.457  40.614  0.00  0.00     0.210 HD
ENDBRANCH   7   8
BRANCH   7  10
HETATM   10  C   UNK N   1      90.901  14.935  41.928  0.00  0.00     0.306 C 
BRANCH  10  11
HETATM   11  N   UNK N   1      90.425  16.166  42.584  0.00  0.00     0.094 N 
HETATM   12  H   UNK N   1      89.436  16.022  42.809  0.00  0.00     0.317 HD
BRANCH  11  13
HETATM   13  C   UNK N   1      91.157  16.583  43.790  0.00  0.00     0.147 C 
HETATM   14  C   UNK N   1      90.666  15.854  45.051  0.00  0.00     0.048 C 
HETATM   15  C   UNK N   1      91.081  18.106  44.002  0.00  0.00     0.048 C 
HETATM   16  C   UNK N   1      92.629  16.201  43.547  0.00  0.00     0.048 C 
ENDBRANCH  11  13
ENDBRANCH  10  11
ENDBRANCH   7  10
ENDBRANCH   5   7
BRANCH   1  17
HETATM   17  O   UNK N   1      91.573  11.860  36.772  0.00  0.00    -0.361 OA
HETATM   18  H   UNK N   1      92.135  11.965  35.988  0.00  0.00     0.217 HD
ENDBRANCH   1  17
BRANCH   4  19
HETATM   19  O   UNK N   1      95.142  13.803  39.336  0.00  0.00    -0.361 OA
HETATM   20  H   UNK N   1      95.483  14.560  38.832  0.00  0.00     0.217 HD
ENDBRANCH   4  19
TORSDOF 7
ENDMDL
MODEL 7
REMARK VINA RESULT:      -5.9     12.196     13.107
REMARK  7 active torsions:
REMARK  status: ('A' for Active; 'I' for Inactive)
REMARK    1  A    between atoms: O_1  and  C_2 
REMARK    2  A    between atoms: C_5  and  O_7 
REMARK    3  A    between atoms: C_6  and  C_9 
REMARK    4  A    between atoms: C_9  and  O_10 
REMARK    5  A    between atoms: C_9  and  C_11 
REMARK    6  A    between atoms: C_11  and  N_12 
REMARK    7  A    between atoms: N_12  and  C_13 
ROOT
HETATM    1  C   UNK N   1      92.832  13.733  38.474  0.00  0.00     0.069 A 
HETATM    2  C   UNK N   1      91.442  13.800  38.497  0.00  0.00     0.073 A 
HETATM    3  C   UNK N   1      93.578  13.895  39.638  0.00  0.00     0.046 A 
HETATM    4  C   UNK N   1      90.806  14.034  39.711  0.00  0.00     0.069 A 
HETATM    5  C   UNK N   1      92.937  14.129  40.864  0.00  0.00    -0.023 A 
HETATM    6  C   UNK N   1      91.536  14.200  40.886  0.00  0.00     0.046 A 
ENDROOT
BRANCH   5   7
HETATM    7  C   UNK N   1      93.730  14.319  42.138  0.00  0.00     0.179 C 
BRANCH   7   8
HETATM    8  O   UNK N   1      94.690  15.371  41.958  0.00  0.00    -0.389 OA
HETATM    9  H   UNK N   1      94.223  16.100  41.514  0.00  0.00     0.210 HD
ENDBRANCH   7   8
BRANCH   7  10
HETATM   10  C   UNK N   1      92.826  14.652  43.350  0.00  0.00     0.306 C 
BRANCH  10  11
HETATM   11  N   UNK N   1      92.828  16.103  43.608  0.00  0.00     0.094 N 
HETATM   12  H   UNK N   1      93.167  16.558  42.755  0.00  0.00     0.317 HD
BRANCH  11  13
HETATM   13  C   UNK N   1      91.542  16.693  44.011  0.00  0.00     0.147 C 
HETATM   14  C   UNK N   1      90.418  16.379  43.011  0.00  0.00     0.048 C 
HETATM   15  C   UNK N   1      91.654  18.214  44.215  0.00  0.00     0.048 C 
HETATM   16  C   UNK N   1      91.185  16.048  45.364  0.00  0.00     0.048 C 
ENDBRANCH  11  13
ENDBRANCH  10  11
ENDBRANCH   7  10
ENDBRANCH   5   7
BRANCH   1  17
HETATM   17  O   UNK N   1      93.515  13.506  37.314  0.00  0.00    -0.361 OA
HETATM   18  H   UNK N   1      93.883  14.345  36.994  0.00  0.00     0.217 HD
ENDBRANCH   1  17
BRANCH   4  19
HETATM   19  O   UNK N   1      89.448  14.112  39.800  0.00  0.00    -0.361 OA
HETATM   20  H   UNK N   1      89.059  13.880  38.941  0.00  0.00     0.217 HD
ENDBRANCH   4  19
TORSDOF 7
ENDMDL
MODEL 8
REMARK VINA RESULT:      -5.9     38.919     40.023
REMARK  7 active torsions:
REMARK  status: ('A' for Active; 'I' for Inactive)
REMARK    1  A    between atoms: O_1  and  C_2 
REMARK    2  A    between atoms: C_5  and  O_7 
REMARK    3  A    between atoms: C_6  and  C_9 
REMARK    4  A    between atoms: C_9  and  O_10 
REMARK    5  A    between atoms: C_9  and  C_11 
REMARK    6  A    between atoms: C_11  and  N_12 
REMARK    7  A    between atoms: N_12  and  C_13 
ROOT
HETATM    1  C   UNK N   1      69.409  30.788  15.787  0.00  0.00     0.069 A 
HETATM    2  C   UNK N   1      68.463  31.131  16.748  0.00  0.00     0.073 A 
HETATM    3  C   UNK N   1      70.371  31.704  15.368  0.00  0.00     0.046 A 
HETATM    4  C   UNK N   1      68.492  32.413  17.286  0.00  0.00     0.069 A 
HETATM    5  C   UNK N   1      70.403  32.997  15.912  0.00  0.00    -0.023 A 
HETATM    6  C   UNK N   1      69.447  33.343  16.878  0.00  0.00     0.046 A 
ENDROOT
BRANCH   5   7
HETATM    7  C   UNK N   1      71.433  34.010  15.462  0.00  0.00     0.179 C 
BRANCH   7   8
HETATM    8  O   UNK N   1      72.329  33.403  14.519  0.00  0.00    -0.389 OA
HETATM    9  H   UNK N   1      72.355  32.454  14.733  0.00  0.00     0.210 HD
ENDBRANCH   7   8
BRANCH   7  10
HETATM   10  C   UNK N   1      70.785  35.263  14.822  0.00  0.00     0.306 C 
BRANCH  10  11
HETATM   11  N   UNK N   1      71.224  35.407  13.423  0.00  0.00     0.094 N 
HETATM   12  H   UNK N   1      70.862  34.597  12.910  0.00  0.00     0.317 HD
BRANCH  11  13
HETATM   13  C   UNK N   1      70.825  36.649  12.741  0.00  0.00     0.147 C 
HETATM   14  C   UNK N   1      69.464  36.516  12.039  0.00  0.00     0.048 C 
HETATM   15  C   UNK N   1      71.893  37.112  11.734  0.00  0.00     0.048 C 
HETATM   16  C   UNK N   1      70.704  37.717  13.844  0.00  0.00     0.048 C 
ENDBRANCH  11  13
ENDBRANCH  10  11
ENDBRANCH   7  10
ENDBRANCH   5   7
BRANCH   1  17
HETATM   17  O   UNK N   1      69.433  29.547  15.221  0.00  0.00    -0.361 OA
HETATM   18  H   UNK N   1      70.288  29.416  14.780  0.00  0.00     0.217 HD
ENDBRANCH   1  17
BRANCH   4  19
HETATM   19  O   UNK N   1      67.592  32.810  18.229  0.00  0.00    -0.361 OA
HETATM   20  H   UNK N   1      66.694  32.716  17.871  0.00  0.00     0.217 HD
ENDBRANCH   4  19
TORSDOF 7
ENDMDL
MODEL 9
REMARK VINA RESULT:      -5.9     33.888     35.343
REMARK  7 active torsions:
REMARK  status: ('A' for Active; 'I' for Inactive)
REMARK    1  A    between atoms: O_1  and  C_2 
REMARK    2  A    between atoms: C_5  and  O_7 
REMARK    3  A    between atoms: C_6  and  C_9 
REMARK    4  A    between atoms: C_9  and  O_10 
REMARK    5  A    between atoms: C_9  and  C_11 
REMARK    6  A    between atoms: C_11  and  N_12 
REMARK    7  A    between atoms: N_12  and  C_13 
ROOT
HETATM    1  C   UNK N   1      82.782  40.731  16.402  0.00  0.00     0.069 A 
HETATM    2  C   UNK N   1      81.700  39.910  16.100  0.00  0.00     0.073 A 
HETATM    3  C   UNK N   1      84.086  40.241  16.374  0.00  0.00     0.046 A 
HETATM    4  C   UNK N   1      81.943  38.582  15.767  0.00  0.00     0.069 A 
HETATM    5  C   UNK N   1      84.331  38.901  16.035  0.00  0.00    -0.023 A 
HETATM    6  C   UNK N   1      83.240  38.074  15.733  0.00  0.00     0.046 A 
ENDROOT
BRANCH   5   7
HETATM    7  C   UNK N   1      85.739  38.347  16.009  0.00  0.00     0.179 C 
BRANCH   7   8
HETATM    8  O   UNK N   1      85.720  36.961  16.383  0.00  0.00    -0.389 OA
HETATM    9  H   UNK N   1      86.644  36.705  16.547  0.00  0.00     0.210 HD
ENDBRANCH   7   8
BRANCH   7  10
HETATM   10  C   UNK N   1      86.403  38.493  14.618  0.00  0.00     0.306 C 
BRANCH  10  11
HETATM   11  N   UNK N   1      86.513  37.179  13.961  0.00  0.00     0.094 N 
HETATM   12  H   UNK N   1      86.349  36.469  14.682  0.00  0.00     0.317 HD
BRANCH  11  13
HETATM   13  C   UNK N   1      85.615  36.946  12.819  0.00  0.00     0.147 C 
HETATM   14  C   UNK N   1      84.907  38.233  12.364  0.00  0.00     0.048 C 
HETATM   15  C   UNK N   1      84.574  35.855  13.127  0.00  0.00     0.048 C 
HETATM   16  C   UNK N   1      86.512  36.450  11.669  0.00  0.00     0.048 C 
ENDBRANCH  11  13
ENDBRANCH  10  11
ENDBRANCH   7  10
ENDBRANCH   5   7
BRANCH   1  17
HETATM   17  O   UNK N   1      82.610  42.042  16.738  0.00  0.00    -0.361 OA
HETATM   18  H   UNK N   1      81.832  42.123  17.312  0.00  0.00     0.217 HD
ENDBRANCH   1  17
BRANCH   4  19
HETATM   19  O   UNK N   1      80.926  37.727  15.461  0.00  0.00    -0.361 OA
HETATM   20  H   UNK N   1      81.278  36.824  15.395  0.00  0.00     0.217 HD
ENDBRANCH   4  19
TORSDOF 7
ENDMDL
