MODEL 1
REMARK VINA RESULT:      -6.4      0.000      0.000
REMARK  9 active torsions:
REMARK  status: ('A' for Active; 'I' for Inactive)
REMARK    1  A    between atoms: C_2  and  O_3 
REMARK    2  A    between atoms: C_2  and  C_4 
REMARK    3  A    between atoms: O_3  and  C_5 
REMARK    4  A    between atoms: C_5  and  C_8 
REMARK    5  A    between atoms: C_8  and  N_11 
REMARK    6  A    between atoms: C_12  and  N_15 
REMARK    7  A    between atoms: N_15  and  C_16 
REMARK    8  A    between atoms: C_16  and  C_17 
REMARK    9  A    between atoms: C_17  and  C_18 
ROOT
HETATM    1  C   UNK N   1      83.771  30.764  42.316  0.00  0.00     0.039 A 
HETATM    2  C   UNK N   1      84.327  31.175  41.103  0.00  0.00     0.020 A 
HETATM    3  C   UNK N   1      83.855  29.416  42.679  0.00  0.00     0.020 A 
HETATM    4  C   UNK N   1      84.958  30.247  40.266  0.00  0.00     0.030 A 
HETATM    5  C   UNK N   1      84.489  28.496  41.833  0.00  0.00     0.030 A 
HETATM    6  C   UNK N   1      85.055  28.892  40.616  0.00  0.00     0.028 A 
ENDROOT
BRANCH   1   7
HETATM    7  C   UNK N   1      83.108  31.785  43.172  0.00  0.00     0.293 C 
HETATM    8  O   UNK N   1      83.183  32.987  42.972  0.00  0.00    -0.259 OA
BRANCH   7   9
HETATM    9  O   UNK N   1      82.423  31.190  44.178  0.00  0.00    -0.316 OA
BRANCH   9  10
HETATM   10  C   UNK N   1      82.434  31.920  45.414  0.00  0.00     0.209 C 
BRANCH  10  11
HETATM   11  C   UNK N   1      80.992  32.197  45.875  0.00  0.00     0.298 C 
BRANCH  11  12
HETATM   12  N   UNK N   1      80.499  33.587  45.846  0.00  0.00     0.082 N 
HETATM   13  C   UNK N   1      81.418  34.525  46.487  0.00  0.00     0.309 C 
HETATM   14  C   UNK N   1      80.150  34.041  44.502  0.00  0.00     0.309 C 
ENDBRANCH  11  12
ENDBRANCH  10  11
ENDBRANCH   9  10
ENDBRANCH   7   9
ENDBRANCH   1   7
BRANCH   6  15
HETATM   15  N   UNK N   1      85.679  28.022  39.745  0.00  0.00    -0.390 N 
HETATM   16  H   UNK N   1      86.355  28.406  39.096  0.00  0.00     0.159 HD
BRANCH  15  17
HETATM   17  C   UNK N   1      85.492  26.582  39.761  0.00  0.00     0.120 C 
BRANCH  17  18
HETATM   18  C   UNK N   1      84.574  26.142  38.619  0.00  0.00     0.019 C 
BRANCH  18  19
HETATM   19  C   UNK N   1      84.941  24.762  38.065  0.00  0.00    -0.003 C 
HETATM   20  C   UNK N   1      86.233  24.245  38.678  0.00  0.00     0.005 C 
ENDBRANCH  18  19
ENDBRANCH  17  18
ENDBRANCH  15  17
ENDBRANCH   6  15
TORSDOF 9
ENDMDL
MODEL 2
REMARK VINA RESULT:      -6.2     14.825     19.102
REMARK  9 active torsions:
REMARK  status: ('A' for Active; 'I' for Inactive)
REMARK    1  A    between atoms: C_2  and  O_3 
REMARK    2  A    between atoms: C_2  and  C_4 
REMARK    3  A    between atoms: O_3  and  C_5 
REMARK    4  A    between atoms: C_5  and  C_8 
REMARK    5  A    between atoms: C_8  and  N_11 
REMARK    6  A    between atoms: C_12  and  N_15 
REMARK    7  A    between atoms: N_15  and  C_16 
REMARK    8  A    between atoms: C_16  and  C_17 
REMARK    9  A    between atoms: C_17  and  C_18 
ROOT
HETATM    1  C   UNK N   1      89.642  13.562  39.724  0.00  0.00     0.039 A 
HETATM    2  C   UNK N   1      90.550  14.617  39.834  0.00  0.00     0.020 A 
HETATM    3  C   UNK N   1      88.668  13.400  40.714  0.00  0.00     0.020 A 
HETATM    4  C   UNK N   1      90.483  15.496  40.921  0.00  0.00     0.030 A 
HETATM    5  C   UNK N   1      88.610  14.287  41.799  0.00  0.00     0.030 A 
HETATM    6  C   UNK N   1      89.511  15.351  41.921  0.00  0.00     0.028 A 
ENDROOT
BRANCH   1   7
HETATM    7  C   UNK N   1      89.754  12.652  38.552  0.00  0.00     0.293 C 
HETATM    8  O   UNK N   1      88.970  12.654  37.617  0.00  0.00    -0.259 OA
BRANCH   7   9
HETATM    9  O   UNK N   1      90.834  11.844  38.679  0.00  0.00    -0.316 OA
BRANCH   9  10
HETATM   10  C   UNK N   1      91.633  11.733  37.491  0.00  0.00     0.209 C 
BRANCH  10  11
HETATM   11  C   UNK N   1      92.739  12.804  37.500  0.00  0.00     0.298 C 
BRANCH  11  12
HETATM   12  N   UNK N   1      94.036  12.469  38.119  0.00  0.00     0.082 N 
HETATM   13  C   UNK N   1      94.249  13.160  39.389  0.00  0.00     0.309 C 
HETATM   14  C   UNK N   1      94.244  11.032  38.270  0.00  0.00     0.309 C 
ENDBRANCH  11  12
ENDBRANCH  10  11
ENDBRANCH   9  10
ENDBRANCH   7   9
ENDBRANCH   1   7
BRANCH   6  15
HETATM   15  N   UNK N   1      89.500  16.242  42.976  0.00  0.00    -0.390 N 
HETATM   16  H   UNK N   1      88.864  17.028  42.923  0.00  0.00     0.159 HD
BRANCH  15  17
HETATM   17  C   UNK N   1      90.279  16.075  44.189  0.00  0.00     0.120 C 
BRANCH  17  18
HETATM   18  C   UNK N   1      91.477  17.027  44.200  0.00  0.00     0.019 C 
BRANCH  18  19
HETATM   19  C   UNK N   1      91.150  18.379  44.843  0.00  0.00    -0.003 C 
HETATM   20  C   UNK N   1      91.122  19.492  43.808  0.00  0.00     0.005 C 
ENDBRANCH  18  19
ENDBRANCH  17  18
ENDBRANCH  15  17
ENDBRANCH   6  15
TORSDOF 9
ENDMDL
MODEL 3
REMARK VINA RESULT:      -6.1     12.308     13.568
REMARK  9 active torsions:
REMARK  status: ('A' for Active; 'I' for Inactive)
REMARK    1  A    between atoms: C_2  and  O_3 
REMARK    2  A    between atoms: C_2  and  C_4 
REMARK    3  A    between atoms: O_3  and  C_5 
REMARK    4  A    between atoms: C_5  and  C_8 
REMARK    5  A    between atoms: C_8  and  N_11 
REMARK    6  A    between atoms: C_12  and  N_15 
REMARK    7  A    between atoms: N_15  and  C_16 
REMARK    8  A    between atoms: C_16  and  C_17 
REMARK    9  A    between atoms: C_17  and  C_18 
ROOT
HETATM    1  C   UNK N   1      93.988  26.892  46.061  0.00  0.00     0.039 A 
HETATM    2  C   UNK N   1      94.953  25.886  45.969  0.00  0.00     0.020 A 
HETATM    3  C   UNK N   1      94.141  27.893  47.024  0.00  0.00     0.020 A 
HETATM    4  C   UNK N   1      96.055  25.885  46.833  0.00  0.00     0.030 A 
HETATM    5  C   UNK N   1      95.249  27.882  47.883  0.00  0.00     0.030 A 
HETATM    6  C   UNK N   1      96.227  26.884  47.802  0.00  0.00     0.028 A 
ENDROOT
BRANCH   1   7
HETATM    7  C   UNK N   1      92.833  26.850  45.124  0.00  0.00     0.293 C 
HETATM    8  O   UNK N   1      92.941  26.947  43.912  0.00  0.00    -0.259 OA
BRANCH   7   9
HETATM    9  O   UNK N   1      91.673  26.687  45.806  0.00  0.00    -0.316 OA
BRANCH   9  10
HETATM   10  C   UNK N   1      91.355  25.321  46.113  0.00  0.00     0.209 C 
BRANCH  10  11
HETATM   11  C   UNK N   1      90.854  25.212  47.565  0.00  0.00     0.298 C 
BRANCH  11  12
HETATM   12  N   UNK N   1      91.781  25.566  48.657  0.00  0.00     0.082 N 
HETATM   13  C   UNK N   1      91.096  25.782  49.929  0.00  0.00     0.309 C 
HETATM   14  C   UNK N   1      92.872  24.608  48.813  0.00  0.00     0.309 C 
ENDBRANCH  11  12
ENDBRANCH  10  11
ENDBRANCH   9  10
ENDBRANCH   7   9
ENDBRANCH   1   7
BRANCH   6  15
HETATM   15  N   UNK N   1      97.328  26.825  48.633  0.00  0.00    -0.390 N 
HETATM   16  H   UNK N   1      97.220  26.364  49.528  0.00  0.00     0.159 HD
BRANCH  15  17
HETATM   17  C   UNK N   1      98.649  27.304  48.266  0.00  0.00     0.120 C 
BRANCH  17  18
HETATM   18  C   UNK N   1      99.466  26.191  47.608  0.00  0.00     0.019 C 
BRANCH  18  19
HETATM   19  C   UNK N   1      99.693  26.431  46.112  0.00  0.00    -0.003 C 
HETATM   20  C   UNK N   1      99.367  25.190  45.296  0.00  0.00     0.005 C 
ENDBRANCH  18  19
ENDBRANCH  17  18
ENDBRANCH  15  17
ENDBRANCH   6  15
TORSDOF 9
ENDMDL
MODEL 4
REMARK VINA RESULT:      -5.9     16.413     19.063
REMARK  9 active torsions:
REMARK  status: ('A' for Active; 'I' for Inactive)
REMARK    1  A    between atoms: C_2  and  O_3 
REMARK    2  A    between atoms: C_2  and  C_4 
REMARK    3  A    between atoms: O_3  and  C_5 
REMARK    4  A    between atoms: C_5  and  C_8 
REMARK    5  A    between atoms: C_8  and  N_11 
REMARK    6  A    between atoms: C_12  and  N_15 
REMARK    7  A    between atoms: N_15  and  C_16 
REMARK    8  A    between atoms: C_16  and  C_17 
REMARK    9  A    between atoms: C_17  and  C_18 
ROOT
HETATM    1  C   UNK N   1      90.272  13.917  39.483  0.00  0.00     0.039 A 
HETATM    2  C   UNK N   1      89.089  13.407  40.022  0.00  0.00     0.020 A 
HETATM    3  C   UNK N   1      90.886  15.008  40.107  0.00  0.00     0.020 A 
HETATM    4  C   UNK N   1      88.530  13.983  41.169  0.00  0.00     0.030 A 
HETATM    5  C   UNK N   1      90.317  15.577  41.255  0.00  0.00     0.030 A 
HETATM    6  C   UNK N   1      89.134  15.075  41.809  0.00  0.00     0.028 A 
ENDROOT
BRANCH   1   7
HETATM    7  C   UNK N   1      90.828  13.273  38.262  0.00  0.00     0.293 C 
HETATM    8  O   UNK N   1      90.256  12.392  37.642  0.00  0.00    -0.259 OA
BRANCH   7   9
HETATM    9  O   UNK N   1      92.034  13.807  37.951  0.00  0.00    -0.316 OA
BRANCH   9  10
HETATM   10  C   UNK N   1      93.007  12.849  37.504  0.00  0.00     0.209 C 
BRANCH  10  11
HETATM   11  C   UNK N   1      93.883  12.398  38.687  0.00  0.00     0.298 C 
BRANCH  11  12
HETATM   12  N   UNK N   1      94.025  13.305  39.842  0.00  0.00     0.082 N 
HETATM   13  C   UNK N   1      93.588  12.693  41.095  0.00  0.00     0.309 C 
HETATM   14  C   UNK N   1      95.372  13.853  39.976  0.00  0.00     0.309 C 
ENDBRANCH  11  12
ENDBRANCH  10  11
ENDBRANCH   9  10
ENDBRANCH   7   9
ENDBRANCH   1   7
BRANCH   6  15
HETATM   15  N   UNK N   1      88.530  15.608  42.931  0.00  0.00    -0.390 N 
HETATM   16  H   UNK N   1      87.921  16.407  42.804  0.00  0.00     0.159 HD
BRANCH  15  17
HETATM   17  C   UNK N   1      88.647  15.043  44.263  0.00  0.00     0.120 C 
BRANCH  17  18
HETATM   18  C   UNK N   1      90.078  14.573  44.529  0.00  0.00     0.019 C 
BRANCH  18  19
HETATM   19  C   UNK N   1      90.853  15.530  45.440  0.00  0.00    -0.003 C 
HETATM   20  C   UNK N   1      91.160  16.841  44.734  0.00  0.00     0.005 C 
ENDBRANCH  18  19
ENDBRANCH  17  18
ENDBRANCH  15  17
ENDBRANCH   6  15
TORSDOF 9
ENDMDL
MODEL 5
REMARK VINA RESULT:      -5.9     16.204     17.674
REMARK  9 active torsions:
REMARK  status: ('A' for Active; 'I' for Inactive)
REMARK    1  A    between atoms: C_2  and  O_3 
REMARK    2  A    between atoms: C_2  and  C_4 
REMARK    3  A    between atoms: O_3  and  C_5 
REMARK    4  A    between atoms: C_5  and  C_8 
REMARK    5  A    between atoms: C_8  and  N_11 
REMARK    6  A    between atoms: C_12  and  N_15 
REMARK    7  A    between atoms: N_15  and  C_16 
REMARK    8  A    between atoms: C_16  and  C_17 
REMARK    9  A    between atoms: C_17  and  C_18 
ROOT
HETATM    1  C   UNK N   1      89.416  15.102  42.167  0.00  0.00     0.039 A 
HETATM    2  C   UNK N   1      90.472  15.535  41.362  0.00  0.00     0.020 A 
HETATM    3  C   UNK N   1      88.585  14.078  41.702  0.00  0.00     0.020 A 
HETATM    4  C   UNK N   1      90.692  14.949  40.110  0.00  0.00     0.030 A 
HETATM    5  C   UNK N   1      88.815  13.498  40.446  0.00  0.00     0.030 A 
HETATM    6  C   UNK N   1      89.871  13.918  39.630  0.00  0.00     0.028 A 
ENDROOT
BRANCH   1   7
HETATM    7  C   UNK N   1      89.220  15.756  43.489  0.00  0.00     0.293 C 
HETATM    8  O   UNK N   1      88.374  15.410  44.296  0.00  0.00    -0.259 OA
BRANCH   7   9
HETATM    9  O   UNK N   1      90.108  16.766  43.655  0.00  0.00    -0.316 OA
BRANCH   9  10
HETATM   10  C   UNK N   1      90.997  16.595  44.770  0.00  0.00     0.209 C 
BRANCH  10  11
HETATM   11  C   UNK N   1      92.416  16.276  44.266  0.00  0.00     0.298 C 
BRANCH  11  12
HETATM   12  N   UNK N   1      93.054  15.021  44.707  0.00  0.00     0.082 N 
HETATM   13  C   UNK N   1      92.132  13.887  44.698  0.00  0.00     0.309 C 
HETATM   14  C   UNK N   1      94.270  14.706  43.963  0.00  0.00     0.309 C 
ENDBRANCH  11  12
ENDBRANCH  10  11
ENDBRANCH   9  10
ENDBRANCH   7   9
ENDBRANCH   1   7
BRANCH   6  15
HETATM   15  N   UNK N   1      90.130  13.386  38.382  0.00  0.00    -0.390 N 
HETATM   16  H   UNK N   1      89.702  13.832  37.580  0.00  0.00     0.159 HD
BRANCH  15  17
HETATM   17  C   UNK N   1      91.043  12.283  38.143  0.00  0.00     0.120 C 
BRANCH  17  18
HETATM   18  C   UNK N   1      92.322  12.776  37.464  0.00  0.00     0.019 C 
BRANCH  18  19
HETATM   19  C   UNK N   1      93.438  13.091  38.465  0.00  0.00    -0.003 C 
HETATM   20  C   UNK N   1      94.503  12.006  38.467  0.00  0.00     0.005 C 
ENDBRANCH  18  19
ENDBRANCH  17  18
ENDBRANCH  15  17
ENDBRANCH   6  15
TORSDOF 9
ENDMDL
MODEL 6
REMARK VINA RESULT:      -5.8     16.489     19.450
REMARK  9 active torsions:
REMARK  status: ('A' for Active; 'I' for Inactive)
REMARK    1  A    between atoms: C_2  and  O_3 
REMARK    2  A    between atoms: C_2  and  C_4 
REMARK    3  A    between atoms: O_3  and  C_5 
REMARK    4  A    between atoms: C_5  and  C_8 
REMARK    5  A    between atoms: C_8  and  N_11 
REMARK    6  A    between atoms: C_12  and  N_15 
REMARK    7  A    between atoms: N_15  and  C_16 
REMARK    8  A    between atoms: C_16  and  C_17 
REMARK    9  A    between atoms: C_17  and  C_18 
ROOT
HETATM    1  C   UNK N   1      90.014  13.698  39.419  0.00  0.00     0.039 A 
HETATM    2  C   UNK N   1      88.844  13.360  40.102  0.00  0.00     0.020 A 
HETATM    3  C   UNK N   1      90.806  14.742  39.907  0.00  0.00     0.020 A 
HETATM    4  C   UNK N   1      88.473  14.059  41.257  0.00  0.00     0.030 A 
HETATM    5  C   UNK N   1      90.425  15.435  41.065  0.00  0.00     0.030 A 
HETATM    6  C   UNK N   1      89.257  15.106  41.762  0.00  0.00     0.028 A 
ENDROOT
BRANCH   1   7
HETATM    7  C   UNK N   1      90.366  12.929  38.195  0.00  0.00     0.293 C 
HETATM    8  O   UNK N   1      91.483  12.913  37.703  0.00  0.00    -0.259 OA
BRANCH   7   9
HETATM    9  O   UNK N   1      89.284  12.262  37.725  0.00  0.00    -0.316 OA
BRANCH   9  10
HETATM   10  C   UNK N   1      89.597  11.167  36.850  0.00  0.00     0.209 C 
BRANCH  10  11
HETATM   11  C   UNK N   1      88.302  10.486  36.375  0.00  0.00     0.298 C 
BRANCH  11  12
HETATM   12  N   UNK N   1      88.085  10.322  34.925  0.00  0.00     0.082 N 
HETATM   13  C   UNK N   1      87.624  11.550  34.281  0.00  0.00     0.309 C 
HETATM   14  C   UNK N   1      89.249   9.779  34.231  0.00  0.00     0.309 C 
ENDBRANCH  11  12
ENDBRANCH  10  11
ENDBRANCH   9  10
ENDBRANCH   7   9
ENDBRANCH   1   7
BRANCH   6  15
HETATM   15  N   UNK N   1      88.836  15.766  42.899  0.00  0.00    -0.390 N 
HETATM   16  H   UNK N   1      88.419  16.681  42.786  0.00  0.00     0.159 HD
BRANCH  15  17
HETATM   17  C   UNK N   1      88.874  15.193  44.233  0.00  0.00     0.120 C 
BRANCH  17  18
HETATM   18  C   UNK N   1      90.287  15.271  44.816  0.00  0.00     0.019 C 
BRANCH  18  19
HETATM   19  C   UNK N   1      90.885  16.678  44.728  0.00  0.00    -0.003 C 
HETATM   20  C   UNK N   1      92.233  16.664  44.024  0.00  0.00     0.005 C 
ENDBRANCH  18  19
ENDBRANCH  17  18
ENDBRANCH  15  17
ENDBRANCH   6  15
TORSDOF 9
ENDMDL
MODEL 7
REMARK VINA RESULT:      -5.8     15.303     19.580
REMARK  9 active torsions:
REMARK  status: ('A' for Active; 'I' for Inactive)
REMARK    1  A    between atoms: C_2  and  O_3 
REMARK    2  A    between atoms: C_2  and  C_4 
REMARK    3  A    between atoms: O_3  and  C_5 
REMARK    4  A    between atoms: C_5  and  C_8 
REMARK    5  A    between atoms: C_8  and  N_11 
REMARK    6  A    between atoms: C_12  and  N_15 
REMARK    7  A    between atoms: N_15  and  C_16 
REMARK    8  A    between atoms: C_16  and  C_17 
REMARK    9  A    between atoms: C_17  and  C_18 
ROOT
HETATM    1  C   UNK N   1      92.547  13.468  39.150  0.00  0.00     0.039 A 
HETATM    2  C   UNK N   1      91.423  14.248  38.872  0.00  0.00     0.020 A 
HETATM    3  C   UNK N   1      93.023  13.410  40.463  0.00  0.00     0.020 A 
HETATM    4  C   UNK N   1      90.786  14.960  39.896  0.00  0.00     0.030 A 
HETATM    5  C   UNK N   1      92.378  14.127  41.481  0.00  0.00     0.030 A 
HETATM    6  C   UNK N   1      91.248  14.910  41.219  0.00  0.00     0.028 A 
ENDROOT
BRANCH   1   7
HETATM    7  C   UNK N   1      93.191  12.731  38.030  0.00  0.00     0.293 C 
HETATM    8  O   UNK N   1      94.373  12.429  38.009  0.00  0.00    -0.259 OA
BRANCH   7   9
HETATM    9  O   UNK N   1      92.284  12.449  37.062  0.00  0.00    -0.316 OA
BRANCH   9  10
HETATM   10  C   UNK N   1      91.941  11.059  36.960  0.00  0.00     0.209 C 
BRANCH  10  11
HETATM   11  C   UNK N   1      90.656  10.775  37.759  0.00  0.00     0.298 C 
BRANCH  11  12
HETATM   12  N   UNK N   1      89.462  11.596  37.484  0.00  0.00     0.082 N 
HETATM   13  C   UNK N   1      88.717  11.134  36.315  0.00  0.00     0.309 C 
HETATM   14  C   UNK N   1      88.580  11.727  38.641  0.00  0.00     0.309 C 
ENDBRANCH  11  12
ENDBRANCH  10  11
ENDBRANCH   9  10
ENDBRANCH   7   9
ENDBRANCH   1   7
BRANCH   6  15
HETATM   15  N   UNK N   1      90.586  15.641  42.185  0.00  0.00    -0.390 N 
HETATM   16  H   UNK N   1      89.755  16.148  41.906  0.00  0.00     0.159 HD
BRANCH  15  17
HETATM   17  C   UNK N   1      90.958  15.659  43.588  0.00  0.00     0.120 C 
BRANCH  17  18
HETATM   18  C   UNK N   1      91.897  16.829  43.886  0.00  0.00     0.019 C 
BRANCH  18  19
HETATM   19  C   UNK N   1      91.225  17.929  44.713  0.00  0.00    -0.003 C 
HETATM   20  C   UNK N   1      91.005  19.187  43.888  0.00  0.00     0.005 C 
ENDBRANCH  18  19
ENDBRANCH  17  18
ENDBRANCH  15  17
ENDBRANCH   6  15
TORSDOF 9
ENDMDL
MODEL 8
REMARK VINA RESULT:      -5.8     12.606     13.997
REMARK  9 active torsions:
REMARK  status: ('A' for Active; 'I' for Inactive)
REMARK    1  A    between atoms: C_2  and  O_3 
REMARK    2  A    between atoms: C_2  and  C_4 
REMARK    3  A    between atoms: O_3  and  C_5 
REMARK    4  A    between atoms: C_5  and  C_8 
REMARK    5  A    between atoms: C_8  and  N_11 
REMARK    6  A    between atoms: C_12  and  N_15 
REMARK    7  A    between atoms: N_15  and  C_16 
REMARK    8  A    between atoms: C_16  and  C_17 
REMARK    9  A    between atoms: C_17  and  C_18 
ROOT
HETATM    1  C   UNK N   1      94.085  26.986  46.118  0.00  0.00     0.039 A 
HETATM    2  C   UNK N   1      94.045  27.981  47.098  0.00  0.00     0.020 A 
HETATM    3  C   UNK N   1      95.215  26.168  46.028  0.00  0.00     0.020 A 
HETATM    4  C   UNK N   1      95.124  28.152  47.974  0.00  0.00     0.030 A 
HETATM    5  C   UNK N   1      96.289  26.348  46.911  0.00  0.00     0.030 A 
HETATM    6  C   UNK N   1      96.263  27.338  47.900  0.00  0.00     0.028 A 
ENDROOT
BRANCH   1   7
HETATM    7  C   UNK N   1      92.916  26.843  45.208  0.00  0.00     0.293 C 
HETATM    8  O   UNK N   1      92.989  26.941  43.994  0.00  0.00    -0.259 OA
BRANCH   7   9
HETATM    9  O   UNK N   1      91.790  26.589  45.918  0.00  0.00    -0.316 OA
BRANCH   9  10
HETATM   10  C   UNK N   1      91.635  25.216  46.308  0.00  0.00     0.209 C 
BRANCH  10  11
HETATM   11  C   UNK N   1      90.956  25.136  47.688  0.00  0.00     0.298 C 
BRANCH  11  12
HETATM   12  N   UNK N   1      91.810  25.046  48.887  0.00  0.00     0.082 N 
HETATM   13  C   UNK N   1      93.128  24.485  48.600  0.00  0.00     0.309 C 
HETATM   14  C   UNK N   1      91.932  26.315  49.599  0.00  0.00     0.309 C 
ENDBRANCH  11  12
ENDBRANCH  10  11
ENDBRANCH   9  10
ENDBRANCH   7   9
ENDBRANCH   1   7
BRANCH   6  15
HETATM   15  N   UNK N   1      97.301  27.560  48.784  0.00  0.00    -0.390 N 
HETATM   16  H   UNK N   1      98.062  26.893  48.796  0.00  0.00     0.159 HD
BRANCH  15  17
HETATM   17  C   UNK N   1      97.408  28.734  49.632  0.00  0.00     0.120 C 
BRANCH  17  18
HETATM   18  C   UNK N   1      98.529  29.654  49.145  0.00  0.00     0.019 C 
BRANCH  18  19
HETATM   19  C   UNK N   1      99.494  28.952  48.185  0.00  0.00    -0.003 C 
HETATM   20  C   UNK N   1     100.925  29.416  48.399  0.00  0.00     0.005 C 
ENDBRANCH  18  19
ENDBRANCH  17  18
ENDBRANCH  15  17
ENDBRANCH   6  15
TORSDOF 9
ENDMDL
MODEL 9
REMARK VINA RESULT:      -5.7     34.917     36.794
REMARK  9 active torsions:
REMARK  status: ('A' for Active; 'I' for Inactive)
REMARK    1  A    between atoms: C_2  and  O_3 
REMARK    2  A    between atoms: C_2  and  C_4 
REMARK    3  A    between atoms: O_3  and  C_5 
REMARK    4  A    between atoms: C_5  and  C_8 
REMARK    5  A    between atoms: C_8  and  N_11 
REMARK    6  A    between atoms: C_12  and  N_15 
REMARK    7  A    between atoms: N_15  and  C_16 
REMARK    8  A    between atoms: C_16  and  C_17 
REMARK    9  A    between atoms: C_17  and  C_18 
ROOT
HETATM    1  C   UNK N   1      76.832   7.716  15.963  0.00  0.00     0.039 A 
HETATM    2  C   UNK N   1      75.744   8.171  15.216  0.00  0.00     0.020 A 
HETATM    3  C   UNK N   1      76.650   6.649  16.847  0.00  0.00     0.020 A 
HETATM    4  C   UNK N   1      74.490   7.564  15.355  0.00  0.00     0.030 A 
HETATM    5  C   UNK N   1      75.390   6.048  16.978  0.00  0.00     0.030 A 
HETATM    6  C   UNK N   1      74.290   6.490  16.234  0.00  0.00     0.028 A 
ENDROOT
BRANCH   1   7
HETATM    7  C   UNK N   1      78.145   8.394  15.784  0.00  0.00     0.293 C 
HETATM    8  O   UNK N   1      78.558   9.275  16.521  0.00  0.00    -0.259 OA
BRANCH   7   9
HETATM    9  O   UNK N   1      78.796   7.892  14.707  0.00  0.00    -0.316 OA
BRANCH   9  10
HETATM   10  C   UNK N   1      80.008   7.190  15.023  0.00  0.00     0.209 C 
BRANCH  10  11
HETATM   11  C   UNK N   1      79.753   5.672  15.015  0.00  0.00     0.298 C 
BRANCH  11  12
HETATM   12  N   UNK N   1      79.865   4.933  16.287  0.00  0.00     0.082 N 
HETATM   13  C   UNK N   1      80.715   3.750  16.179  0.00  0.00     0.309 C 
HETATM   14  C   UNK N   1      80.291   5.776  17.402  0.00  0.00     0.309 C 
ENDBRANCH  11  12
ENDBRANCH  10  11
ENDBRANCH   9  10
ENDBRANCH   7   9
ENDBRANCH   1   7
BRANCH   6  15
HETATM   15  N   UNK N   1      73.028   5.938  16.336  0.00  0.00    -0.390 N 
HETATM   16  H   UNK N   1      72.314   6.476  16.811  0.00  0.00     0.159 HD
BRANCH  15  17
HETATM   17  C   UNK N   1      72.642   4.675  15.732  0.00  0.00     0.120 C 
BRANCH  17  18
HETATM   18  C   UNK N   1      72.409   4.842  14.229  0.00  0.00     0.019 C 
BRANCH  18  19
HETATM   19  C   UNK N   1      73.444   4.092  13.385  0.00  0.00    -0.003 C 
HETATM   20  C   UNK N   1      74.467   3.387  14.261  0.00  0.00     0.005 C 
ENDBRANCH  18  19
ENDBRANCH  17  18
ENDBRANCH  15  17
ENDBRANCH   6  15
TORSDOF 9
ENDMDL
