MODEL 1
REMARK VINA RESULT:      -7.8      0.000      0.000
REMARK  11 active torsions:
REMARK  status: ('A' for Active; 'I' for Inactive)
REMARK       I    between atoms: C_6  and  N_11 
REMARK    1  A    between atoms: N_13  and  C_14 
REMARK    2  A    between atoms: C_14  and  O_15 
REMARK    3  A    between atoms: O_15  and  C_16 
REMARK    4  A    between atoms: C_16  and  C_17 
REMARK    5  A    between atoms: C_16  and  C_18 
REMARK    6  A    between atoms: C_17  and  O_19 
REMARK    7  A    between atoms: C_18  and  O_20 
REMARK    8  A    between atoms: O_19  and  C_21 
REMARK    9  A    between atoms: C_21  and  C_23 
REMARK   10  A    between atoms: C_23  and  N_24 
REMARK   11  A    between atoms: C_23  and  C_25 
ROOT
HETATM    1  C   UNK N   1      93.124  15.686  43.708  0.00  0.00     0.301 C 
ENDROOT
BRANCH   1   2
HETATM    2  N   UNK N   1      93.174  15.013  42.423  0.00  0.00    -0.305 N 
HETATM    3  C   UNK N   1      94.238  14.669  41.656  0.00  0.00     0.158 A 
HETATM    4  C   UNK N   1      93.756  13.971  40.580  0.00  0.00     0.147 A 
HETATM    5  N   UNK N   1      95.542  14.911  41.821  0.00  0.00    -0.174 N 
HETATM    6  C   UNK N   1      94.693  13.460  39.571  0.00  0.00     0.290 A 
HETATM    7  N   UNK N   1      92.382  13.876  40.663  0.00  0.00    -0.345 N 
HETATM    8  O   UNK N   1      94.315  12.832  38.586  0.00  0.00    -0.265 OA
HETATM    9  N   UNK N   1      96.045  13.727  39.817  0.00  0.00    -0.154 N 
HETATM   10  C   UNK N   1      96.392  14.406  40.870  0.00  0.00     0.680 A 
ATOM     11  HN  UNK N   1      96.758  13.389  39.170  1.00  0.00     0.187 HD
HETATM   12  N   UNK N   1      97.688  14.666  41.134  0.00  0.00    -0.234 N 
HETATM   13  H   UNK N   1      97.987  15.070  42.017  0.00  0.00     0.174 HD
HETATM   14  H   UNK N   1      98.395  14.312  40.504  0.00  0.00     0.174 HD
HETATM   15  C   UNK N   1      92.066  14.511  41.775  0.00  0.00     0.187 A 
ATOM     16  HN  UNK N   1      91.750  13.415  40.008  1.00  0.00     0.167 HD
HETATM   17  H   UNK N   1      95.928  15.498  42.560  0.00  0.00     0.186 HD
ENDBRANCH   1   2
BRANCH   1  18
HETATM   18  O   UNK N   1      92.673  17.030  43.547  0.00  0.00    -0.362 OA
BRANCH  18  19
HETATM   19  C   UNK N   1      91.355  17.250  44.085  0.00  0.00     0.171 C 
BRANCH  19  20
HETATM   20  C   UNK N   1      91.140  16.276  45.255  0.00  0.00     0.213 C 
BRANCH  20  21
HETATM   21  O   UNK N   1      89.790  15.767  45.228  0.00  0.00    -0.317 OA
BRANCH  21  22
HETATM   22  C   UNK N   1      89.601  14.587  44.571  0.00  0.00     0.292 C 
HETATM   23  O   UNK N   1      90.336  13.609  44.665  0.00  0.00    -0.263 OA
BRANCH  22  24
HETATM   24  C   UNK N   1      88.361  14.676  43.651  0.00  0.00     0.319 C 
BRANCH  24  25
HETATM   25  N   UNK N   1      88.375  15.989  42.965  0.00  0.00     0.092 N 
HETATM   26  H   UNK N   1      89.025  16.625  43.431  0.00  0.00     0.313 HD
HETATM   27  H   UNK N   1      87.458  16.427  43.029  0.00  0.00     0.313 HD
ENDBRANCH  24  25
BRANCH  24  28
HETATM   28  C   UNK N   1      88.338  13.525  42.613  0.00  0.00     0.020 C 
HETATM   29  C   UNK N   1      88.553  14.034  41.180  0.00  0.00     0.012 C 
HETATM   30  C   UNK N   1      87.022  12.736  42.650  0.00  0.00     0.012 C 
ENDBRANCH  24  28
ENDBRANCH  22  24
ENDBRANCH  21  22
ENDBRANCH  20  21
ENDBRANCH  19  20
BRANCH  19  31
HETATM   31  C   UNK N   1      91.230  18.701  44.570  0.00  0.00     0.198 C 
BRANCH  31  32
HETATM   32  O   UNK N   1      90.378  19.451  43.711  0.00  0.00    -0.398 OA
HETATM   33  H   UNK N   1      90.885  19.655  42.901  0.00  0.00     0.209 HD
ENDBRANCH  31  32
ENDBRANCH  19  31
ENDBRANCH  18  19
ENDBRANCH   1  18
TORSDOF 11
ENDMDL
MODEL 2
REMARK VINA RESULT:      -7.7     16.390     18.593
REMARK  11 active torsions:
REMARK  status: ('A' for Active; 'I' for Inactive)
REMARK       I    between atoms: C_6  and  N_11 
REMARK    1  A    between atoms: N_13  and  C_14 
REMARK    2  A    between atoms: C_14  and  O_15 
REMARK    3  A    between atoms: O_15  and  C_16 
REMARK    4  A    between atoms: C_16  and  C_17 
REMARK    5  A    between atoms: C_16  and  C_18 
REMARK    6  A    between atoms: C_17  and  O_19 
REMARK    7  A    between atoms: C_18  and  O_20 
REMARK    8  A    between atoms: O_19  and  C_21 
REMARK    9  A    between atoms: C_21  and  C_23 
REMARK   10  A    between atoms: C_23  and  N_24 
REMARK   11  A    between atoms: C_23  and  C_25 
ROOT
HETATM    1  C   UNK N   1      81.137  27.436  37.294  0.00  0.00     0.301 C 
ENDROOT
BRANCH   1   2
HETATM    2  N   UNK N   1      82.124  26.372  37.250  0.00  0.00    -0.305 N 
HETATM    3  C   UNK N   1      83.312  26.255  37.892  0.00  0.00     0.158 A 
HETATM    4  C   UNK N   1      83.822  25.021  37.583  0.00  0.00     0.147 A 
HETATM    5  N   UNK N   1      83.956  27.109  38.693  0.00  0.00    -0.174 N 
HETATM    6  C   UNK N   1      85.114  24.609  38.149  0.00  0.00     0.290 A 
HETATM    7  N   UNK N   1      82.956  24.356  36.739  0.00  0.00    -0.345 N 
HETATM    8  O   UNK N   1      85.617  23.518  37.902  0.00  0.00    -0.265 OA
HETATM    9  N   UNK N   1      85.722  25.541  38.998  0.00  0.00    -0.154 N 
HETATM   10  C   UNK N   1      85.151  26.689  39.218  0.00  0.00     0.680 A 
ATOM     11  HN  UNK N   1      86.613  25.320  39.444  1.00  0.00     0.187 HD
HETATM   12  N   UNK N   1      85.711  27.597  40.041  0.00  0.00    -0.234 N 
HETATM   13  H   UNK N   1      85.217  28.435  40.333  0.00  0.00     0.174 HD
HETATM   14  H   UNK N   1      86.583  27.369  40.499  0.00  0.00     0.174 HD
HETATM   15  C   UNK N   1      81.953  25.193  36.558  0.00  0.00     0.187 A 
ATOM     16  HN  UNK N   1      83.068  23.424  36.343  1.00  0.00     0.167 HD
HETATM   17  H   UNK N   1      83.651  28.065  38.876  0.00  0.00     0.186 HD
ENDBRANCH   1   2
BRANCH   1  18
HETATM   18  O   UNK N   1      80.408  27.487  36.068  0.00  0.00    -0.362 OA
BRANCH  18  19
HETATM   19  C   UNK N   1      79.705  28.730  35.882  0.00  0.00     0.171 C 
BRANCH  19  20
HETATM   20  C   UNK N   1      78.570  28.498  34.872  0.00  0.00     0.213 C 
BRANCH  20  21
HETATM   21  O   UNK N   1      78.105  29.764  34.356  0.00  0.00    -0.317 OA
BRANCH  21  22
HETATM   22  C   UNK N   1      76.753  29.951  34.341  0.00  0.00     0.292 C 
HETATM   23  O   UNK N   1      76.067  30.169  35.335  0.00  0.00    -0.263 OA
BRANCH  22  24
HETATM   24  C   UNK N   1      76.205  29.798  32.904  0.00  0.00     0.319 C 
BRANCH  24  25
HETATM   25  N   UNK N   1      77.270  30.183  31.948  0.00  0.00     0.092 N 
HETATM   26  H   UNK N   1      76.861  30.625  31.122  0.00  0.00     0.313 HD
HETATM   27  H   UNK N   1      77.755  29.353  31.612  0.00  0.00     0.313 HD
ENDBRANCH  24  25
BRANCH  24  28
HETATM   28  C   UNK N   1      75.731  28.348  32.627  0.00  0.00     0.020 C 
HETATM   29  C   UNK N   1      76.710  27.582  31.725  0.00  0.00     0.012 C 
HETATM   30  C   UNK N   1      74.343  28.306  31.975  0.00  0.00     0.012 C 
ENDBRANCH  24  28
ENDBRANCH  22  24
ENDBRANCH  21  22
ENDBRANCH  20  21
ENDBRANCH  19  20
BRANCH  19  31
HETATM   31  C   UNK N   1      79.134  29.206  37.225  0.00  0.00     0.198 C 
BRANCH  31  32
HETATM   32  O   UNK N   1      78.759  30.578  37.158  0.00  0.00    -0.398 OA
HETATM   33  H   UNK N   1      77.900  30.669  37.613  0.00  0.00     0.209 HD
ENDBRANCH  31  32
ENDBRANCH  19  31
ENDBRANCH  18  19
ENDBRANCH   1  18
TORSDOF 11
ENDMDL
MODEL 3
REMARK VINA RESULT:      -7.6     12.794     15.872
REMARK  11 active torsions:
REMARK  status: ('A' for Active; 'I' for Inactive)
REMARK       I    between atoms: C_6  and  N_11 
REMARK    1  A    between atoms: N_13  and  C_14 
REMARK    2  A    between atoms: C_14  and  O_15 
REMARK    3  A    between atoms: O_15  and  C_16 
REMARK    4  A    between atoms: C_16  and  C_17 
REMARK    5  A    between atoms: C_16  and  C_18 
REMARK    6  A    between atoms: C_17  and  O_19 
REMARK    7  A    between atoms: C_18  and  O_20 
REMARK    8  A    between atoms: O_19  and  C_21 
REMARK    9  A    between atoms: C_21  and  C_23 
REMARK   10  A    between atoms: C_23  and  N_24 
REMARK   11  A    between atoms: C_23  and  C_25 
ROOT
HETATM    1  C   UNK N   1      82.512  26.324  37.592  0.00  0.00     0.301 C 
ENDROOT
BRANCH   1   2
HETATM    2  N   UNK N   1      81.533  25.439  36.987  0.00  0.00    -0.305 N 
HETATM    3  C   UNK N   1      81.269  24.132  37.228  0.00  0.00     0.158 A 
HETATM    4  C   UNK N   1      80.191  23.785  36.458  0.00  0.00     0.147 A 
HETATM    5  N   UNK N   1      81.875  23.257  38.037  0.00  0.00    -0.174 N 
HETATM    6  C   UNK N   1      79.669  22.413  36.518  0.00  0.00     0.290 A 
HETATM    7  N   UNK N   1      79.773  24.875  35.722  0.00  0.00    -0.345 N 
HETATM    8  O   UNK N   1      78.709  22.048  35.847  0.00  0.00    -0.265 OA
HETATM    9  N   UNK N   1      80.334  21.556  37.403  0.00  0.00    -0.154 N 
HETATM   10  C   UNK N   1      81.354  21.990  38.083  0.00  0.00     0.680 A 
ATOM     11  HN  UNK N   1      80.019  20.592  37.513  1.00  0.00     0.187 HD
HETATM   12  N   UNK N   1      82.003  21.187  38.950  0.00  0.00    -0.234 N 
HETATM   13  H   UNK N   1      82.708  21.543  39.589  0.00  0.00     0.174 HD
HETATM   14  H   UNK N   1      81.677  20.238  39.075  0.00  0.00     0.174 HD
HETATM   15  C   UNK N   1      80.599  25.847  36.060  0.00  0.00     0.187 A 
ATOM     16  HN  UNK N   1      78.997  24.920  35.063  1.00  0.00     0.167 HD
HETATM   17  H   UNK N   1      82.729  23.454  38.558  0.00  0.00     0.186 HD
ENDBRANCH   1   2
BRANCH   1  18
HETATM   18  O   UNK N   1      83.340  25.600  38.501  0.00  0.00    -0.362 OA
BRANCH  18  19
HETATM   19  C   UNK N   1      84.743  25.873  38.325  0.00  0.00     0.171 C 
BRANCH  19  20
HETATM   20  C   UNK N   1      85.218  26.744  39.500  0.00  0.00     0.213 C 
BRANCH  20  21
HETATM   21  O   UNK N   1      84.161  27.639  39.907  0.00  0.00    -0.317 OA
BRANCH  21  22
HETATM   22  C   UNK N   1      84.401  28.972  39.747  0.00  0.00     0.292 C 
HETATM   23  O   UNK N   1      84.320  29.574  38.680  0.00  0.00    -0.263 OA
BRANCH  22  24
HETATM   24  C   UNK N   1      84.840  29.604  41.087  0.00  0.00     0.319 C 
BRANCH  24  25
HETATM   25  N   UNK N   1      84.827  31.079  40.942  0.00  0.00     0.092 N 
HETATM   26  H   UNK N   1      85.606  31.383  40.354  0.00  0.00     0.313 HD
HETATM   27  H   UNK N   1      84.969  31.521  41.849  0.00  0.00     0.313 HD
ENDBRANCH  24  25
BRANCH  24  28
HETATM   28  C   UNK N   1      83.914  29.170  42.252  0.00  0.00     0.020 C 
HETATM   29  C   UNK N   1      83.373  30.371  43.041  0.00  0.00     0.012 C 
HETATM   30  C   UNK N   1      84.622  28.228  43.236  0.00  0.00     0.012 C 
ENDBRANCH  24  28
ENDBRANCH  22  24
ENDBRANCH  21  22
ENDBRANCH  20  21
ENDBRANCH  19  20
BRANCH  19  31
HETATM   31  C   UNK N   1      85.526  24.554  38.290  0.00  0.00     0.198 C 
BRANCH  31  32
HETATM   32  O   UNK N   1      86.919  24.786  38.469  0.00  0.00    -0.398 OA
HETATM   33  H   UNK N   1      87.387  24.330  37.743  0.00  0.00     0.209 HD
ENDBRANCH  31  32
ENDBRANCH  19  31
ENDBRANCH  18  19
ENDBRANCH   1  18
TORSDOF 11
ENDMDL
MODEL 4
REMARK VINA RESULT:      -7.5     15.533     17.830
REMARK  11 active torsions:
REMARK  status: ('A' for Active; 'I' for Inactive)
REMARK       I    between atoms: C_6  and  N_11 
REMARK    1  A    between atoms: N_13  and  C_14 
REMARK    2  A    between atoms: C_14  and  O_15 
REMARK    3  A    between atoms: O_15  and  C_16 
REMARK    4  A    between atoms: C_16  and  C_17 
REMARK    5  A    between atoms: C_16  and  C_18 
REMARK    6  A    between atoms: C_17  and  O_19 
REMARK    7  A    between atoms: C_18  and  O_20 
REMARK    8  A    between atoms: O_19  and  C_21 
REMARK    9  A    between atoms: C_21  and  C_23 
REMARK   10  A    between atoms: C_23  and  N_24 
REMARK   11  A    between atoms: C_23  and  C_25 
ROOT
HETATM    1  C   UNK N   1      81.630  26.956  37.052  0.00  0.00     0.301 C 
ENDROOT
BRANCH   1   2
HETATM    2  N   UNK N   1      82.810  26.130  37.231  0.00  0.00    -0.305 N 
HETATM    3  C   UNK N   1      83.852  26.266  38.087  0.00  0.00     0.158 A 
HETATM    4  C   UNK N   1      84.661  25.173  37.922  0.00  0.00     0.147 A 
HETATM    5  N   UNK N   1      84.134  27.233  38.966  0.00  0.00    -0.174 N 
HETATM    6  C   UNK N   1      85.879  25.044  38.734  0.00  0.00     0.290 A 
HETATM    7  N   UNK N   1      84.134  24.344  36.953  0.00  0.00    -0.345 N 
HETATM    8  O   UNK N   1      86.640  24.089  38.624  0.00  0.00    -0.265 OA
HETATM    9  N   UNK N   1      86.102  26.079  39.651  0.00  0.00    -0.154 N 
HETATM   10  C   UNK N   1      85.269  27.075  39.720  0.00  0.00     0.680 A 
ATOM     11  HN  UNK N   1      86.917  26.051  40.263  1.00  0.00     0.187 HD
HETATM   12  N   UNK N   1      85.456  28.077  40.603  0.00  0.00    -0.234 N 
HETATM   13  H   UNK N   1      84.748  28.787  40.768  0.00  0.00     0.174 HD
HETATM   14  H   UNK N   1      86.252  28.038  41.223  0.00  0.00     0.174 HD
HETATM   15  C   UNK N   1      83.029  24.947  36.559  0.00  0.00     0.187 A 
ATOM     16  HN  UNK N   1      84.515  23.460  36.617  1.00  0.00     0.167 HD
HETATM   17  H   UNK N   1      83.604  28.099  39.056  0.00  0.00     0.186 HD
ENDBRANCH   1   2
BRANCH   1  18
HETATM   18  O   UNK N   1      80.896  26.531  35.904  0.00  0.00    -0.362 OA
BRANCH  18  19
HETATM   19  C   UNK N   1      79.650  25.892  36.237  0.00  0.00     0.171 C 
BRANCH  19  20
HETATM   20  C   UNK N   1      78.567  26.976  36.362  0.00  0.00     0.213 C 
BRANCH  20  21
HETATM   21  O   UNK N   1      78.832  28.044  35.426  0.00  0.00    -0.317 OA
BRANCH  21  22
HETATM   22  C   UNK N   1      78.241  29.244  35.695  0.00  0.00     0.292 C 
HETATM   23  O   UNK N   1      78.682  30.081  36.475  0.00  0.00    -0.263 OA
BRANCH  22  24
HETATM   24  C   UNK N   1      76.911  29.374  34.916  0.00  0.00     0.319 C 
BRANCH  24  25
HETATM   25  N   UNK N   1      76.256  30.643  35.309  0.00  0.00     0.092 N 
HETATM   26  H   UNK N   1      75.420  30.453  35.865  0.00  0.00     0.313 HD
HETATM   27  H   UNK N   1      75.935  31.142  34.480  0.00  0.00     0.313 HD
ENDBRANCH  24  25
BRANCH  24  28
HETATM   28  C   UNK N   1      77.143  29.338  33.384  0.00  0.00     0.020 C 
HETATM   29  C   UNK N   1      76.704  30.642  32.702  0.00  0.00     0.012 C 
HETATM   30  C   UNK N   1      76.404  28.172  32.713  0.00  0.00     0.012 C 
ENDBRANCH  24  28
ENDBRANCH  22  24
ENDBRANCH  21  22
ENDBRANCH  20  21
ENDBRANCH  19  20
BRANCH  19  31
HETATM   31  C   UNK N   1      79.274  24.888  35.139  0.00  0.00     0.198 C 
BRANCH  31  32
HETATM   32  O   UNK N   1      78.956  25.560  33.925  0.00  0.00    -0.398 OA
HETATM   33  H   UNK N   1      79.648  25.331  33.275  0.00  0.00     0.209 HD
ENDBRANCH  31  32
ENDBRANCH  19  31
ENDBRANCH  18  19
ENDBRANCH   1  18
TORSDOF 11
ENDMDL
MODEL 5
REMARK VINA RESULT:      -7.4     11.797     13.859
REMARK  11 active torsions:
REMARK  status: ('A' for Active; 'I' for Inactive)
REMARK       I    between atoms: C_6  and  N_11 
REMARK    1  A    between atoms: N_13  and  C_14 
REMARK    2  A    between atoms: C_14  and  O_15 
REMARK    3  A    between atoms: O_15  and  C_16 
REMARK    4  A    between atoms: C_16  and  C_17 
REMARK    5  A    between atoms: C_16  and  C_18 
REMARK    6  A    between atoms: C_17  and  O_19 
REMARK    7  A    between atoms: C_18  and  O_20 
REMARK    8  A    between atoms: O_19  and  C_21 
REMARK    9  A    between atoms: C_21  and  C_23 
REMARK   10  A    between atoms: C_23  and  N_24 
REMARK   11  A    between atoms: C_23  and  C_25 
ROOT
HETATM    1  C   UNK N   1      94.335  24.709  48.514  0.00  0.00     0.301 C 
ENDROOT
BRANCH   1   2
HETATM    2  N   UNK N   1      92.941  24.960  48.199  0.00  0.00    -0.305 N 
HETATM    3  C   UNK N   1      92.382  25.550  47.114  0.00  0.00     0.158 A 
HETATM    4  C   UNK N   1      91.023  25.461  47.257  0.00  0.00     0.147 A 
HETATM    5  N   UNK N   1      92.949  26.133  46.053  0.00  0.00    -0.174 N 
HETATM    6  C   UNK N   1      90.147  26.016  46.215  0.00  0.00     0.290 A 
HETATM    7  N   UNK N   1      90.719  24.818  48.439  0.00  0.00    -0.345 N 
HETATM    8  O   UNK N   1      88.924  25.968  46.295  0.00  0.00    -0.265 OA
HETATM    9  N   UNK N   1      90.806  26.591  45.121  0.00  0.00    -0.154 N 
HETATM   10  C   UNK N   1      92.105  26.627  45.091  0.00  0.00     0.680 A 
ATOM     11  HN  UNK N   1      90.266  26.982  44.349  1.00  0.00     0.187 HD
HETATM   12  N   UNK N   1      92.762  27.164  44.043  0.00  0.00    -0.234 N 
HETATM   13  H   UNK N   1      93.768  27.076  43.937  0.00  0.00     0.174 HD
HETATM   14  H   UNK N   1      92.226  27.532  43.269  0.00  0.00     0.174 HD
HETATM   15  C   UNK N   1      91.888  24.535  48.979  0.00  0.00     0.187 A 
ATOM     16  HN  UNK N   1      89.793  24.609  48.812  1.00  0.00     0.167 HD
HETATM   17  H   UNK N   1      93.951  26.294  45.954  0.00  0.00     0.186 HD
ENDBRANCH   1   2
BRANCH   1  18
HETATM   18  O   UNK N   1      94.864  25.771  49.308  0.00  0.00    -0.362 OA
BRANCH  18  19
HETATM   19  C   UNK N   1      95.877  26.534  48.624  0.00  0.00     0.171 C 
BRANCH  19  20
HETATM   20  C   UNK N   1      96.340  25.733  47.397  0.00  0.00     0.213 C 
BRANCH  20  21
HETATM   21  O   UNK N   1      97.399  26.442  46.719  0.00  0.00    -0.317 OA
BRANCH  21  22
HETATM   22  C   UNK N   1      98.663  25.961  46.900  0.00  0.00     0.292 C 
HETATM   23  O   UNK N   1      98.995  25.187  47.792  0.00  0.00    -0.263 OA
BRANCH  22  24
HETATM   24  C   UNK N   1      99.626  26.572  45.856  0.00  0.00     0.319 C 
BRANCH  24  25
HETATM   25  N   UNK N   1     100.569  27.476  46.555  0.00  0.00     0.092 N 
HETATM   26  H   UNK N   1     100.101  27.941  47.336  0.00  0.00     0.313 HD
HETATM   27  H   UNK N   1     100.871  28.219  45.926  0.00  0.00     0.313 HD
ENDBRANCH  24  25
BRANCH  24  28
HETATM   28  C   UNK N   1     100.403  25.473  45.087  0.00  0.00     0.020 C 
HETATM   29  C   UNK N   1     101.324  26.063  44.009  0.00  0.00     0.012 C 
HETATM   30  C   UNK N   1      99.465  24.461  44.415  0.00  0.00     0.012 C 
ENDBRANCH  24  28
ENDBRANCH  22  24
ENDBRANCH  21  22
ENDBRANCH  20  21
ENDBRANCH  19  20
BRANCH  19  31
HETATM   31  C   UNK N   1      95.300  27.887  48.190  0.00  0.00     0.198 C 
BRANCH  31  32
HETATM   32  O   UNK N   1      95.120  27.933  46.779  0.00  0.00    -0.398 OA
HETATM   33  H   UNK N   1      95.773  27.324  46.381  0.00  0.00     0.209 HD
ENDBRANCH  31  32
ENDBRANCH  19  31
ENDBRANCH  18  19
ENDBRANCH   1  18
TORSDOF 11
ENDMDL
MODEL 6
REMARK VINA RESULT:      -7.4     11.523     13.758
REMARK  11 active torsions:
REMARK  status: ('A' for Active; 'I' for Inactive)
REMARK       I    between atoms: C_6  and  N_11 
REMARK    1  A    between atoms: N_13  and  C_14 
REMARK    2  A    between atoms: C_14  and  O_15 
REMARK    3  A    between atoms: O_15  and  C_16 
REMARK    4  A    between atoms: C_16  and  C_17 
REMARK    5  A    between atoms: C_16  and  C_18 
REMARK    6  A    between atoms: C_17  and  O_19 
REMARK    7  A    between atoms: C_18  and  O_20 
REMARK    8  A    between atoms: O_19  and  C_21 
REMARK    9  A    between atoms: C_21  and  C_23 
REMARK   10  A    between atoms: C_23  and  N_24 
REMARK   11  A    between atoms: C_23  and  C_25 
ROOT
HETATM    1  C   UNK N   1      95.119  26.080  46.187  0.00  0.00     0.301 C 
ENDROOT
BRANCH   1   2
HETATM    2  N   UNK N   1      93.704  26.175  45.874  0.00  0.00    -0.305 N 
HETATM    3  C   UNK N   1      92.625  25.722  46.557  0.00  0.00     0.158 A 
HETATM    4  C   UNK N   1      91.509  26.147  45.885  0.00  0.00     0.147 A 
HETATM    5  N   UNK N   1      92.546  24.997  47.677  0.00  0.00    -0.174 N 
HETATM    6  C   UNK N   1      90.177  25.807  46.405  0.00  0.00     0.290 A 
HETATM    7  N   UNK N   1      91.883  26.867  44.769  0.00  0.00    -0.345 N 
HETATM    8  O   UNK N   1      89.146  26.158  45.840  0.00  0.00    -0.265 OA
HETATM    9  N   UNK N   1      90.168  25.067  47.593  0.00  0.00    -0.154 N 
HETATM   10  C   UNK N   1      91.290  24.710  48.145  0.00  0.00     0.680 A 
ATOM     11  HN  UNK N   1      89.281  24.807  48.025  1.00  0.00     0.187 HD
HETATM   12  N   UNK N   1      91.306  24.008  49.295  0.00  0.00    -0.234 N 
HETATM   13  H   UNK N   1      92.165  23.842  49.812  0.00  0.00     0.174 HD
HETATM   14  H   UNK N   1      90.427  23.770  49.734  0.00  0.00     0.174 HD
HETATM   15  C   UNK N   1      93.202  26.863  44.790  0.00  0.00     0.187 A 
ATOM     16  HN  UNK N   1      91.273  27.306  44.080  1.00  0.00     0.167 HD
HETATM   17  H   UNK N   1      93.351  24.592  48.156  0.00  0.00     0.186 HD
ENDBRANCH   1   2
BRANCH   1  18
HETATM   18  O   UNK N   1      95.375  24.917  46.972  0.00  0.00    -0.362 OA
BRANCH  18  19
HETATM   19  C   UNK N   1      96.346  25.143  48.012  0.00  0.00     0.171 C 
BRANCH  19  20
HETATM   20  C   UNK N   1      97.056  26.477  47.730  0.00  0.00     0.213 C 
BRANCH  20  21
HETATM   21  O   UNK N   1      98.397  26.442  48.264  0.00  0.00    -0.317 OA
BRANCH  21  22
HETATM   22  C   UNK N   1      99.325  25.769  47.525  0.00  0.00     0.292 C 
HETATM   23  O   UNK N   1     100.018  24.848  47.944  0.00  0.00    -0.263 OA
BRANCH  22  24
HETATM   24  C   UNK N   1      99.417  26.368  46.103  0.00  0.00     0.319 C 
BRANCH  24  25
HETATM   25  N   UNK N   1     100.127  27.666  46.182  0.00  0.00     0.092 N 
HETATM   26  H   UNK N   1      99.891  28.147  47.052  0.00  0.00     0.313 HD
HETATM   27  H   UNK N   1      99.819  28.280  45.429  0.00  0.00     0.313 HD
ENDBRANCH  24  25
BRANCH  24  28
HETATM   28  C   UNK N   1     100.150  25.411  45.128  0.00  0.00     0.020 C 
HETATM   29  C   UNK N   1     100.829  26.167  43.976  0.00  0.00     0.012 C 
HETATM   30  C   UNK N   1      99.206  24.363  44.524  0.00  0.00     0.012 C 
ENDBRANCH  24  28
ENDBRANCH  22  24
ENDBRANCH  21  22
ENDBRANCH  20  21
ENDBRANCH  19  20
BRANCH  19  31
HETATM   31  C   UNK N   1      95.642  25.192  49.375  0.00  0.00     0.198 C 
BRANCH  31  32
HETATM   32  O   UNK N   1      94.608  24.216  49.447  0.00  0.00    -0.398 OA
HETATM   33  H   UNK N   1      94.736  23.600  48.700  0.00  0.00     0.209 HD
ENDBRANCH  31  32
ENDBRANCH  19  31
ENDBRANCH  18  19
ENDBRANCH   1  18
TORSDOF 11
ENDMDL
MODEL 7
REMARK VINA RESULT:      -7.4      2.139      6.602
REMARK  11 active torsions:
REMARK  status: ('A' for Active; 'I' for Inactive)
REMARK       I    between atoms: C_6  and  N_11 
REMARK    1  A    between atoms: N_13  and  C_14 
REMARK    2  A    between atoms: C_14  and  O_15 
REMARK    3  A    between atoms: O_15  and  C_16 
REMARK    4  A    between atoms: C_16  and  C_17 
REMARK    5  A    between atoms: C_16  and  C_18 
REMARK    6  A    between atoms: C_17  and  O_19 
REMARK    7  A    between atoms: C_18  and  O_20 
REMARK    8  A    between atoms: O_19  and  C_21 
REMARK    9  A    between atoms: C_21  and  C_23 
REMARK   10  A    between atoms: C_23  and  N_24 
REMARK   11  A    between atoms: C_23  and  C_25 
ROOT
HETATM    1  C   UNK N   1      89.903  13.111  41.337  0.00  0.00     0.301 C 
ENDROOT
BRANCH   1   2
HETATM    2  N   UNK N   1      90.030  14.338  42.102  0.00  0.00    -0.305 N 
HETATM    3  C   UNK N   1      91.133  14.951  42.596  0.00  0.00     0.158 A 
HETATM    4  C   UNK N   1      90.726  16.129  43.165  0.00  0.00     0.147 A 
HETATM    5  N   UNK N   1      92.416  14.573  42.587  0.00  0.00    -0.174 N 
HETATM    6  C   UNK N   1      91.720  17.018  43.781  0.00  0.00     0.290 A 
HETATM    7  N   UNK N   1      89.359  16.261  43.035  0.00  0.00    -0.345 N 
HETATM    8  O   UNK N   1      91.409  18.082  44.307  0.00  0.00    -0.265 OA
HETATM    9  N   UNK N   1      93.046  16.573  43.715  0.00  0.00    -0.154 N 
HETATM   10  C   UNK N   1      93.321  15.432  43.155  0.00  0.00     0.680 A 
ATOM     11  HN  UNK N   1      93.796  17.144  44.105  1.00  0.00     0.187 HD
HETATM   12  N   UNK N   1      94.591  14.988  43.069  0.00  0.00    -0.234 N 
HETATM   13  H   UNK N   1      94.839  14.172  42.516  0.00  0.00     0.174 HD
HETATM   14  H   UNK N   1      95.335  15.564  43.437  0.00  0.00     0.174 HD
HETATM   15  C   UNK N   1      88.973  15.172  42.398  0.00  0.00     0.187 A 
ATOM     16  HN  UNK N   1      88.775  17.031  43.360  1.00  0.00     0.167 HD
HETATM   17  H   UNK N   1      92.744  13.668  42.251  0.00  0.00     0.186 HD
ENDBRANCH   1   2
BRANCH   1  18
HETATM   18  O   UNK N   1      90.905  13.054  40.323  0.00  0.00    -0.362 OA
BRANCH  18  19
HETATM   19  C   UNK N   1      90.445  13.541  39.048  0.00  0.00     0.171 C 
BRANCH  19  20
HETATM   20  C   UNK N   1      91.594  14.313  38.381  0.00  0.00     0.213 C 
BRANCH  20  21
HETATM   21  O   UNK N   1      92.768  14.270  39.220  0.00  0.00    -0.317 OA
BRANCH  21  22
HETATM   22  C   UNK N   1      93.724  13.359  38.878  0.00  0.00     0.292 C 
HETATM   23  O   UNK N   1      93.828  12.837  37.772  0.00  0.00    -0.263 OA
BRANCH  22  24
HETATM   24  C   UNK N   1      94.622  13.039  40.095  0.00  0.00     0.319 C 
BRANCH  24  25
HETATM   25  N   UNK N   1      94.030  11.900  40.833  0.00  0.00     0.092 N 
HETATM   26  H   UNK N   1      94.764  11.349  41.283  0.00  0.00     0.313 HD
HETATM   27  H   UNK N   1      93.562  11.268  40.185  0.00  0.00     0.313 HD
ENDBRANCH  24  25
BRANCH  24  28
HETATM   28  C   UNK N   1      96.072  12.704  39.660  0.00  0.00     0.020 C 
HETATM   29  C   UNK N   1      96.405  11.217  39.850  0.00  0.00     0.012 C 
HETATM   30  C   UNK N   1      97.114  13.531  40.425  0.00  0.00     0.012 C 
ENDBRANCH  24  28
ENDBRANCH  22  24
ENDBRANCH  21  22
ENDBRANCH  20  21
ENDBRANCH  19  20
BRANCH  19  31
HETATM   31  C   UNK N   1      90.015  12.360  38.167  0.00  0.00     0.198 C 
BRANCH  31  32
HETATM   32  O   UNK N   1      90.981  12.106  37.154  0.00  0.00    -0.398 OA
HETATM   33  H   UNK N   1      91.372  11.229  37.337  0.00  0.00     0.209 HD
ENDBRANCH  31  32
ENDBRANCH  19  31
ENDBRANCH  18  19
ENDBRANCH   1  18
TORSDOF 11
ENDMDL
MODEL 8
REMARK VINA RESULT:      -7.1     36.854     38.063
REMARK  11 active torsions:
REMARK  status: ('A' for Active; 'I' for Inactive)
REMARK       I    between atoms: C_6  and  N_11 
REMARK    1  A    between atoms: N_13  and  C_14 
REMARK    2  A    between atoms: C_14  and  O_15 
REMARK    3  A    between atoms: O_15  and  C_16 
REMARK    4  A    between atoms: C_16  and  C_17 
REMARK    5  A    between atoms: C_16  and  C_18 
REMARK    6  A    between atoms: C_17  and  O_19 
REMARK    7  A    between atoms: C_18  and  O_20 
REMARK    8  A    between atoms: O_19  and  C_21 
REMARK    9  A    between atoms: C_21  and  C_23 
REMARK   10  A    between atoms: C_23  and  N_24 
REMARK   11  A    between atoms: C_23  and  C_25 
ROOT
HETATM    1  C   UNK N   1      83.984  38.638  16.986  0.00  0.00     0.301 C 
ENDROOT
BRANCH   1   2
HETATM    2  N   UNK N   1      84.758  37.969  15.957  0.00  0.00    -0.305 N 
HETATM    3  C   UNK N   1      84.349  37.301  14.850  0.00  0.00     0.158 A 
HETATM    4  C   UNK N   1      85.473  36.936  14.156  0.00  0.00     0.147 A 
HETATM    5  N   UNK N   1      83.120  37.001  14.420  0.00  0.00    -0.174 N 
HETATM    6  C   UNK N   1      85.336  36.196  12.894  0.00  0.00     0.290 A 
HETATM    7  N   UNK N   1      86.597  37.369  14.828  0.00  0.00    -0.345 N 
HETATM    8  O   UNK N   1      86.308  35.841  12.236  0.00  0.00    -0.265 OA
HETATM    9  N   UNK N   1      84.021  35.936  12.490  0.00  0.00    -0.154 N 
HETATM   10  C   UNK N   1      83.025  36.324  13.231  0.00  0.00     0.680 A 
ATOM     11  HN  UNK N   1      83.844  35.441  11.616  1.00  0.00     0.187 HD
HETATM   12  N   UNK N   1      81.750  36.096  12.858  0.00  0.00    -0.234 N 
HETATM   13  H   UNK N   1      80.963  36.511  13.348  0.00  0.00     0.174 HD
HETATM   14  H   UNK N   1      81.576  35.625  11.980  0.00  0.00     0.174 HD
HETATM   15  C   UNK N   1      86.135  37.981  15.901  0.00  0.00     0.187 A 
ATOM     16  HN  UNK N   1      87.572  37.244  14.554  1.00  0.00     0.167 HD
HETATM   17  H   UNK N   1      82.267  37.180  14.950  0.00  0.00     0.186 HD
ENDBRANCH   1   2
BRANCH   1  18
HETATM   18  O   UNK N   1      82.587  38.493  16.730  0.00  0.00    -0.362 OA
BRANCH  18  19
HETATM   19  C   UNK N   1      81.923  39.750  16.504  0.00  0.00     0.171 C 
BRANCH  19  20
HETATM   20  C   UNK N   1      82.963  40.765  16.002  0.00  0.00     0.213 C 
BRANCH  20  21
HETATM   21  O   UNK N   1      82.935  40.824  14.560  0.00  0.00    -0.317 OA
BRANCH  21  22
HETATM   22  C   UNK N   1      84.145  40.893  13.933  0.00  0.00     0.292 C 
HETATM   23  O   UNK N   1      85.221  41.042  14.505  0.00  0.00    -0.263 OA
BRANCH  22  24
HETATM   24  C   UNK N   1      83.962  40.812  12.400  0.00  0.00     0.319 C 
BRANCH  24  25
HETATM   25  N   UNK N   1      84.629  39.584  11.909  0.00  0.00     0.092 N 
HETATM   26  H   UNK N   1      84.845  38.961  12.691  0.00  0.00     0.313 HD
HETATM   27  H   UNK N   1      85.524  39.818  11.481  0.00  0.00     0.313 HD
ENDBRANCH  24  25
BRANCH  24  28
HETATM   28  C   UNK N   1      82.463  40.807  12.005  0.00  0.00     0.020 C 
HETATM   29  C   UNK N   1      81.984  39.413  11.571  0.00  0.00     0.012 C 
HETATM   30  C   UNK N   1      82.158  41.794  10.871  0.00  0.00     0.012 C 
ENDBRANCH  24  28
ENDBRANCH  22  24
ENDBRANCH  21  22
ENDBRANCH  20  21
ENDBRANCH  19  20
BRANCH  19  31
HETATM   31  C   UNK N   1      80.811  39.568  15.461  0.00  0.00     0.198 C 
BRANCH  31  32
HETATM   32  O   UNK N   1      80.631  38.191  15.148  0.00  0.00    -0.398 OA
HETATM   33  H   UNK N   1      81.510  37.822  14.935  0.00  0.00     0.209 HD
ENDBRANCH  31  32
ENDBRANCH  19  31
ENDBRANCH  18  19
ENDBRANCH   1  18
TORSDOF 11
ENDMDL
MODEL 9
REMARK VINA RESULT:      -7.1      1.084      2.382
REMARK  11 active torsions:
REMARK  status: ('A' for Active; 'I' for Inactive)
REMARK       I    between atoms: C_6  and  N_11 
REMARK    1  A    between atoms: N_13  and  C_14 
REMARK    2  A    between atoms: C_14  and  O_15 
REMARK    3  A    between atoms: O_15  and  C_16 
REMARK    4  A    between atoms: C_16  and  C_17 
REMARK    5  A    between atoms: C_16  and  C_18 
REMARK    6  A    between atoms: C_17  and  O_19 
REMARK    7  A    between atoms: C_18  and  O_20 
REMARK    8  A    between atoms: O_19  and  C_21 
REMARK    9  A    between atoms: C_21  and  C_23 
REMARK   10  A    between atoms: C_23  and  N_24 
REMARK   11  A    between atoms: C_23  and  C_25 
ROOT
HETATM    1  C   UNK N   1      93.308  15.395  44.087  0.00  0.00     0.301 C 
ENDROOT
BRANCH   1   2
HETATM    2  N   UNK N   1      93.769  14.720  42.887  0.00  0.00    -0.305 N 
HETATM    3  C   UNK N   1      93.116  14.453  41.729  0.00  0.00     0.158 A 
HETATM    4  C   UNK N   1      94.020  13.878  40.875  0.00  0.00     0.147 A 
HETATM    5  N   UNK N   1      91.844  14.666  41.379  0.00  0.00    -0.174 N 
HETATM    6  C   UNK N   1      93.592  13.484  39.526  0.00  0.00     0.290 A 
HETATM    7  N   UNK N   1      95.248  13.776  41.495  0.00  0.00    -0.345 N 
HETATM    8  O   UNK N   1      94.359  12.963  38.723  0.00  0.00    -0.265 OA
HETATM    9  N   UNK N   1      92.255  13.758  39.216  0.00  0.00    -0.154 N 
HETATM   10  C   UNK N   1      91.480  14.303  40.108  0.00  0.00     0.680 A 
ATOM     11  HN  UNK N   1      91.888  13.529  38.292  1.00  0.00     0.187 HD
HETATM   12  N   UNK N   1      90.192  14.586  39.829  0.00  0.00    -0.234 N 
HETATM   13  H   UNK N   1      89.614  15.135  40.459  0.00  0.00     0.174 HD
HETATM   14  H   UNK N   1      89.835  14.379  38.907  0.00  0.00     0.174 HD
HETATM   15  C   UNK N   1      95.063  14.286  42.698  0.00  0.00     0.187 A 
ATOM     16  HN  UNK N   1      96.110  13.391  41.109  1.00  0.00     0.167 HD
HETATM   17  H   UNK N   1      91.124  15.011  42.014  0.00  0.00     0.186 HD
ENDBRANCH   1   2
BRANCH   1  18
HETATM   18  O   UNK N   1      92.738  16.660  43.757  0.00  0.00    -0.362 OA
BRANCH  18  19
HETATM   19  C   UNK N   1      91.398  16.822  44.260  0.00  0.00     0.171 C 
BRANCH  19  20
HETATM   20  C   UNK N   1      91.224  15.903  45.480  0.00  0.00     0.213 C 
BRANCH  20  21
HETATM   21  O   UNK N   1      89.894  15.340  45.485  0.00  0.00    -0.317 OA
BRANCH  21  22
HETATM   22  C   UNK N   1      89.616  14.435  44.504  0.00  0.00     0.292 C 
HETATM   23  O   UNK N   1      90.374  13.540  44.143  0.00  0.00    -0.263 OA
BRANCH  22  24
HETATM   24  C   UNK N   1      88.235  14.730  43.876  0.00  0.00     0.319 C 
BRANCH  24  25
HETATM   25  N   UNK N   1      88.424  15.638  42.721  0.00  0.00     0.092 N 
HETATM   26  H   UNK N   1      89.375  15.553  42.356  0.00  0.00     0.313 HD
HETATM   27  H   UNK N   1      88.323  16.608  43.018  0.00  0.00     0.313 HD
ENDBRANCH  24  25
BRANCH  24  28
HETATM   28  C   UNK N   1      87.523  13.428  43.426  0.00  0.00     0.020 C 
HETATM   29  C   UNK N   1      87.552  13.250  41.901  0.00  0.00     0.012 C 
HETATM   30  C   UNK N   1      86.061  13.375  43.889  0.00  0.00     0.012 C 
ENDBRANCH  24  28
ENDBRANCH  22  24
ENDBRANCH  21  22
ENDBRANCH  20  21
ENDBRANCH  19  20
BRANCH  19  31
HETATM   31  C   UNK N   1      91.168  18.286  44.660  0.00  0.00     0.198 C 
BRANCH  31  32
HETATM   32  O   UNK N   1      90.564  19.013  43.596  0.00  0.00    -0.398 OA
HETATM   33  H   UNK N   1      89.601  18.850  43.641  0.00  0.00     0.209 HD
ENDBRANCH  31  32
ENDBRANCH  19  31
ENDBRANCH  18  19
ENDBRANCH   1  18
TORSDOF 11
ENDMDL
