MODEL 1
REMARK VINA RESULT:      -7.8      0.000      0.000
REMARK  10 active torsions:
REMARK  status: ('A' for Active; 'I' for Inactive)
REMARK    1  A    between atoms: C_2  and  O_3 
REMARK    2  A    between atoms: C_2  and  C_4 
REMARK    3  A    between atoms: C_7  and  C_10 
REMARK    4  A    between atoms: C_8  and  N_11 
REMARK    5  A    between atoms: C_9  and  N_13 
REMARK    6  A    between atoms: C_10  and  O_14 
REMARK    7  A    between atoms: C_10  and  C_15 
REMARK       I    between atoms: N_11  and  C_16 
REMARK       I    between atoms: N_13  and  C_17 
REMARK    8  A    between atoms: C_15  and  O_18 
REMARK    9  A    between atoms: C_15  and  C_19 
REMARK       I    between atoms: C_16  and  N_20 
REMARK   10  A    between atoms: C_19  and  O_24 
ROOT
HETATM    1  C   UNK N   1      91.353  17.538  43.960  0.00  0.00     0.141 C 
HETATM    2  O   UNK N   1      90.186  16.809  43.830  0.00  0.00    -0.335 OA
HETATM    3  C   UNK N   1      92.572  16.980  43.872  0.00  0.00     0.044 C 
HETATM    4  C   UNK N   1      90.307  15.362  43.917  0.00  0.00     0.185 C 
HETATM    5  C   UNK N   1      92.768  15.527  43.581  0.00  0.00     0.150 C 
HETATM    6  C   UNK N   1      91.466  14.885  43.017  0.00  0.00     0.143 C 
ENDROOT
BRANCH   4   7
HETATM    7  C   UNK N   1      88.898  14.838  43.559  0.00  0.00     0.180 C 
BRANCH   7   8
HETATM    8  O   UNK N   1      88.053  15.975  43.200  0.00  0.00    -0.390 OA
HETATM    9  H   UNK N   1      87.272  15.584  42.755  0.00  0.00     0.210 HD
ENDBRANCH   7   8
BRANCH   7  10
HETATM   10  C   UNK N   1      88.116  14.072  44.646  0.00  0.00     0.173 C 
BRANCH  10  11
HETATM   11  O   UNK N   1      87.146  14.980  45.214  0.00  0.00    -0.391 OA
HETATM   12  H   UNK N   1      86.342  14.871  44.663  0.00  0.00     0.210 HD
ENDBRANCH  10  11
BRANCH  10  13
HETATM   13  C   UNK N   1      88.958  13.523  45.808  0.00  0.00     0.198 C 
BRANCH  13  14
HETATM   14  O   UNK N   1      88.536  14.025  47.074  0.00  0.00    -0.398 OA
HETATM   15  H   UNK N   1      87.920  13.362  47.442  0.00  0.00     0.209 HD
ENDBRANCH  13  14
ENDBRANCH  10  13
ENDBRANCH   7  10
ENDBRANCH   4   7
BRANCH   6  16
HETATM   16  N   UNK N   1      91.635  13.434  42.909  0.00  0.00    -0.352 N 
HETATM   17  C   UNK N   1      91.996  12.837  41.722  0.00  0.00     0.214 C 
HETATM   18  O   UNK N   1      91.995  13.421  40.645  0.00  0.00    -0.274 OA
HETATM   19  C   UNK N   1      92.316  11.374  41.851  0.00  0.00     0.117 C 
HETATM   20  H   UNK N   1      91.713  12.897  43.764  0.00  0.00     0.163 HD
ENDBRANCH   6  16
BRANCH   1  21
HETATM   21  C   UNK N   1      91.186  19.001  44.196  0.00  0.00     0.200 C 
HETATM   22  O   UNK N   1      91.063  19.843  43.322  0.00  0.00    -0.645 OA
BRANCH  21  23
HETATM   23  O   UNK N   1      91.161  19.352  45.495  0.00  0.00    -0.771 OA
HETATM   24  H   UNK N   1      91.003  20.318  45.461  0.00  0.00     0.167 HD
ENDBRANCH  21  23
ENDBRANCH   1  21
BRANCH   5  25
HETATM   25  N   UNK N   1      93.834  15.354  42.597  0.00  0.00    -0.217 N 
HETATM   26  C   UNK N   1      94.883  14.677  42.875  0.00  0.00     0.665 C 
HETATM   27  N   UNK N   1      95.228  14.064  44.021  0.00  0.00    -0.235 N 
HETATM   28  N   UNK N   1      95.820  14.518  41.928  0.00  0.00    -0.235 N 
HETATM   29  H   UNK N   1      96.077  13.527  44.094  0.00  0.00     0.174 HD
HETATM   30  H   UNK N   1      94.663  14.142  44.854  0.00  0.00     0.174 HD
HETATM   31  H   UNK N   1      96.730  14.126  42.098  0.00  0.00     0.174 HD
HETATM   32  H   UNK N   1      95.651  14.967  41.036  0.00  0.00     0.174 HD
ATOM     33  HN  UNK N   1      93.740  15.778  41.673  1.00  0.00     0.178 HD
ENDBRANCH   5  25
TORSDOF 10
ENDMDL
MODEL 2
REMARK VINA RESULT:      -7.7      2.383      5.344
REMARK  10 active torsions:
REMARK  status: ('A' for Active; 'I' for Inactive)
REMARK    1  A    between atoms: C_2  and  O_3 
REMARK    2  A    between atoms: C_2  and  C_4 
REMARK    3  A    between atoms: C_7  and  C_10 
REMARK    4  A    between atoms: C_8  and  N_11 
REMARK    5  A    between atoms: C_9  and  N_13 
REMARK    6  A    between atoms: C_10  and  O_14 
REMARK    7  A    between atoms: C_10  and  C_15 
REMARK       I    between atoms: N_11  and  C_16 
REMARK       I    between atoms: N_13  and  C_17 
REMARK    8  A    between atoms: C_15  and  O_18 
REMARK    9  A    between atoms: C_15  and  C_19 
REMARK       I    between atoms: C_16  and  N_20 
REMARK   10  A    between atoms: C_19  and  O_24 
ROOT
HETATM    1  C   UNK N   1      87.774  14.815  44.138  0.00  0.00     0.141 C 
HETATM    2  O   UNK N   1      88.936  15.452  44.530  0.00  0.00    -0.335 OA
HETATM    3  C   UNK N   1      87.617  14.274  42.919  0.00  0.00     0.044 C 
HETATM    4  C   UNK N   1      89.872  15.810  43.475  0.00  0.00     0.185 C 
HETATM    5  C   UNK N   1      88.706  14.280  41.895  0.00  0.00     0.150 C 
HETATM    6  C   UNK N   1      90.086  14.600  42.542  0.00  0.00     0.143 C 
ENDROOT
BRANCH   4   7
HETATM    7  C   UNK N   1      91.118  16.328  44.227  0.00  0.00     0.180 C 
BRANCH   7   8
HETATM    8  O   UNK N   1      90.747  16.598  45.615  0.00  0.00    -0.390 OA
HETATM    9  H   UNK N   1      91.311  16.000  46.152  0.00  0.00     0.210 HD
ENDBRANCH   7   8
BRANCH   7  10
HETATM   10  C   UNK N   1      91.781  17.625  43.718  0.00  0.00     0.173 C 
BRANCH  10  11
HETATM   11  O   UNK N   1      93.084  17.724  44.335  0.00  0.00    -0.391 OA
HETATM   12  H   UNK N   1      92.912  17.695  45.300  0.00  0.00     0.210 HD
ENDBRANCH  10  11
BRANCH  10  13
HETATM   13  C   UNK N   1      91.028  18.925  44.037  0.00  0.00     0.198 C 
BRANCH  13  14
HETATM   14  O   UNK N   1      91.248  19.371  45.372  0.00  0.00    -0.398 OA
HETATM   15  H   UNK N   1      92.127  19.031  45.635  0.00  0.00     0.209 HD
ENDBRANCH  13  14
ENDBRANCH  10  13
ENDBRANCH   7  10
ENDBRANCH   4   7
BRANCH   6  16
HETATM   16  N   UNK N   1      91.097  14.771  41.496  0.00  0.00    -0.352 N 
HETATM   17  C   UNK N   1      92.259  14.033  41.489  0.00  0.00     0.214 C 
HETATM   18  O   UNK N   1      92.633  13.354  42.438  0.00  0.00    -0.274 OA
HETATM   19  C   UNK N   1      93.076  14.199  40.238  0.00  0.00     0.117 C 
HETATM   20  H   UNK N   1      90.832  15.264  40.652  0.00  0.00     0.163 HD
ENDBRANCH   6  16
BRANCH   1  21
HETATM   21  C   UNK N   1      86.691  14.746  45.161  0.00  0.00     0.200 C 
HETATM   22  O   UNK N   1      86.838  14.384  46.317  0.00  0.00    -0.645 OA
BRANCH  21  23
HETATM   23  O   UNK N   1      85.485  15.145  44.716  0.00  0.00    -0.771 OA
HETATM   24  H   UNK N   1      85.604  16.108  44.582  0.00  0.00     0.167 HD
ENDBRANCH  21  23
ENDBRANCH   1  21
BRANCH   5  25
HETATM   25  N   UNK N   1      88.790  12.972  41.247  0.00  0.00    -0.217 N 
HETATM   26  C   UNK N   1      88.189  12.745  40.141  0.00  0.00     0.665 C 
HETATM   27  N   UNK N   1      87.401  13.556  39.413  0.00  0.00    -0.235 N 
HETATM   28  N   UNK N   1      88.323  11.540  39.568  0.00  0.00    -0.235 N 
HETATM   29  H   UNK N   1      87.017  13.259  38.530  0.00  0.00     0.174 HD
HETATM   30  H   UNK N   1      87.145  14.476  39.737  0.00  0.00     0.174 HD
HETATM   31  H   UNK N   1      87.781  11.229  38.780  0.00  0.00     0.174 HD
HETATM   32  H   UNK N   1      88.885  10.858  40.062  0.00  0.00     0.174 HD
ATOM     33  HN  UNK N   1      89.336  12.229  41.684  1.00  0.00     0.178 HD
ENDBRANCH   5  25
TORSDOF 10
ENDMDL
MODEL 3
REMARK VINA RESULT:      -7.5      2.344      3.281
REMARK  10 active torsions:
REMARK  status: ('A' for Active; 'I' for Inactive)
REMARK    1  A    between atoms: C_2  and  O_3 
REMARK    2  A    between atoms: C_2  and  C_4 
REMARK    3  A    between atoms: C_7  and  C_10 
REMARK    4  A    between atoms: C_8  and  N_11 
REMARK    5  A    between atoms: C_9  and  N_13 
REMARK    6  A    between atoms: C_10  and  O_14 
REMARK    7  A    between atoms: C_10  and  C_15 
REMARK       I    between atoms: N_11  and  C_16 
REMARK       I    between atoms: N_13  and  C_17 
REMARK    8  A    between atoms: C_15  and  O_18 
REMARK    9  A    between atoms: C_15  and  C_19 
REMARK       I    between atoms: C_16  and  N_20 
REMARK   10  A    between atoms: C_19  and  O_24 
ROOT
HETATM    1  C   UNK N   1      91.507  15.883  43.270  0.00  0.00     0.141 C 
HETATM    2  O   UNK N   1      90.614  15.247  42.429  0.00  0.00    -0.335 OA
HETATM    3  C   UNK N   1      92.821  15.603  43.283  0.00  0.00     0.044 C 
HETATM    4  C   UNK N   1      91.081  14.030  41.781  0.00  0.00     0.185 C 
HETATM    5  C   UNK N   1      93.434  14.605  42.354  0.00  0.00     0.150 C 
HETATM    6  C   UNK N   1      92.477  14.273  41.171  0.00  0.00     0.143 C 
ENDROOT
BRANCH   4   7
HETATM    7  C   UNK N   1      89.952  13.665  40.792  0.00  0.00     0.180 C 
BRANCH   7   8
HETATM    8  O   UNK N   1      90.140  14.434  39.563  0.00  0.00    -0.390 OA
HETATM    9  H   UNK N   1      89.238  14.706  39.290  0.00  0.00     0.210 HD
ENDBRANCH   7   8
BRANCH   7  10
HETATM   10  C   UNK N   1      88.496  13.935  41.227  0.00  0.00     0.173 C 
BRANCH  10  11
HETATM   11  O   UNK N   1      88.353  13.479  42.592  0.00  0.00    -0.391 OA
HETATM   12  H   UNK N   1      89.175  13.766  43.044  0.00  0.00     0.210 HD
ENDBRANCH  10  11
BRANCH  10  13
HETATM   13  C   UNK N   1      87.413  13.229  40.397  0.00  0.00     0.198 C 
BRANCH  13  14
HETATM   14  O   UNK N   1      87.304  13.759  39.078  0.00  0.00    -0.398 OA
HETATM   15  H   UNK N   1      87.526  14.709  39.143  0.00  0.00     0.209 HD
ENDBRANCH  13  14
ENDBRANCH  10  13
ENDBRANCH   7  10
ENDBRANCH   4   7
BRANCH   6  16
HETATM   16  N   UNK N   1      93.029  13.170  40.381  0.00  0.00    -0.352 N 
HETATM   17  C   UNK N   1      93.279  13.304  39.034  0.00  0.00     0.214 C 
HETATM   18  O   UNK N   1      92.874  14.245  38.362  0.00  0.00    -0.274 OA
HETATM   19  C   UNK N   1      94.027  12.144  38.437  0.00  0.00     0.117 C 
HETATM   20  H   UNK N   1      93.443  12.389  40.875  0.00  0.00     0.163 HD
ENDBRANCH   6  16
BRANCH   1  21
HETATM   21  C   UNK N   1      90.929  16.923  44.169  0.00  0.00     0.200 C 
HETATM   22  O   UNK N   1      90.797  16.814  45.377  0.00  0.00    -0.645 OA
BRANCH  21  23
HETATM   23  O   UNK N   1      90.558  18.054  43.539  0.00  0.00    -0.771 OA
HETATM   24  H   UNK N   1      91.296  18.668  43.732  0.00  0.00     0.167 HD
ENDBRANCH  21  23
ENDBRANCH   1  21
BRANCH   5  25
HETATM   25  N   UNK N   1      94.681  15.134  41.806  0.00  0.00    -0.217 N 
HETATM   26  C   UNK N   1      95.731  14.406  41.736  0.00  0.00     0.665 C 
HETATM   27  N   UNK N   1      95.920  13.136  42.137  0.00  0.00    -0.235 N 
HETATM   28  N   UNK N   1      96.843  14.925  41.195  0.00  0.00    -0.235 N 
HETATM   29  H   UNK N   1      96.798  12.665  41.987  0.00  0.00     0.174 HD
HETATM   30  H   UNK N   1      95.202  12.622  42.625  0.00  0.00     0.174 HD
HETATM   31  H   UNK N   1      97.744  14.479  41.226  0.00  0.00     0.174 HD
HETATM   32  H   UNK N   1      96.795  15.887  40.885  0.00  0.00     0.174 HD
ATOM     33  HN  UNK N   1      94.716  16.098  41.473  1.00  0.00     0.178 HD
ENDBRANCH   5  25
TORSDOF 10
ENDMDL
MODEL 4
REMARK VINA RESULT:      -7.0     32.083     34.040
REMARK  10 active torsions:
REMARK  status: ('A' for Active; 'I' for Inactive)
REMARK    1  A    between atoms: C_2  and  O_3 
REMARK    2  A    between atoms: C_2  and  C_4 
REMARK    3  A    between atoms: C_7  and  C_10 
REMARK    4  A    between atoms: C_8  and  N_11 
REMARK    5  A    between atoms: C_9  and  N_13 
REMARK    6  A    between atoms: C_10  and  O_14 
REMARK    7  A    between atoms: C_10  and  C_15 
REMARK       I    between atoms: N_11  and  C_16 
REMARK       I    between atoms: N_13  and  C_17 
REMARK    8  A    between atoms: C_15  and  O_18 
REMARK    9  A    between atoms: C_15  and  C_19 
REMARK       I    between atoms: C_16  and  N_20 
REMARK   10  A    between atoms: C_19  and  O_24 
ROOT
HETATM    1  C   UNK N   1      75.375   7.491  15.888  0.00  0.00     0.141 C 
HETATM    2  O   UNK N   1      74.500   6.842  15.038  0.00  0.00    -0.335 OA
HETATM    3  C   UNK N   1      75.615   7.072  17.142  0.00  0.00     0.044 C 
HETATM    4  C   UNK N   1      73.595   5.877  15.643  0.00  0.00     0.185 C 
HETATM    5  C   UNK N   1      74.985   5.841  17.708  0.00  0.00     0.150 C 
HETATM    6  C   UNK N   1      74.388   4.945  16.583  0.00  0.00     0.143 C 
ENDROOT
BRANCH   4   7
HETATM    7  C   UNK N   1      72.890   5.207  14.444  0.00  0.00     0.180 C 
BRANCH   7   8
HETATM    8  O   UNK N   1      71.735   4.459  14.938  0.00  0.00    -0.390 OA
HETATM    9  H   UNK N   1      71.611   3.727  14.297  0.00  0.00     0.210 HD
ENDBRANCH   7   8
BRANCH   7  10
HETATM   10  C   UNK N   1      73.701   4.203  13.599  0.00  0.00     0.173 C 
BRANCH  10  11
HETATM   11  O   UNK N   1      74.386   4.947  12.567  0.00  0.00    -0.391 OA
HETATM   12  H   UNK N   1      73.969   5.835  12.574  0.00  0.00     0.210 HD
ENDBRANCH  10  11
BRANCH  10  13
HETATM   13  C   UNK N   1      72.881   3.108  12.900  0.00  0.00     0.198 C 
BRANCH  13  14
HETATM   14  O   UNK N   1      72.490   2.065  13.790  0.00  0.00    -0.398 OA
HETATM   15  H   UNK N   1      73.160   1.359  13.697  0.00  0.00     0.209 HD
ENDBRANCH  13  14
ENDBRANCH  10  13
ENDBRANCH   7  10
ENDBRANCH   4   7
BRANCH   6  16
HETATM   16  N   UNK N   1      73.628   3.842  17.177  0.00  0.00    -0.352 N 
HETATM   17  C   UNK N   1      73.961   2.528  16.939  0.00  0.00     0.214 C 
HETATM   18  O   UNK N   1      74.752   2.178  16.071  0.00  0.00    -0.274 OA
HETATM   19  C   UNK N   1      73.202   1.546  17.788  0.00  0.00     0.117 C 
HETATM   20  H   UNK N   1      73.006   4.052  17.948  0.00  0.00     0.163 HD
ENDBRANCH   6  16
BRANCH   1  21
HETATM   21  C   UNK N   1      76.060   8.691  15.328  0.00  0.00     0.200 C 
HETATM   22  O   UNK N   1      75.540   9.520  14.600  0.00  0.00    -0.645 OA
BRANCH  21  23
HETATM   23  O   UNK N   1      77.344   8.822  15.708  0.00  0.00    -0.771 OA
HETATM   24  H   UNK N   1      77.773   8.033  15.318  0.00  0.00     0.167 HD
ENDBRANCH  21  23
ENDBRANCH   1  21
BRANCH   5  25
HETATM   25  N   UNK N   1      75.981   5.061  18.440  0.00  0.00    -0.217 N 
HETATM   26  C   UNK N   1      76.941   4.478  17.828  0.00  0.00     0.665 C 
HETATM   27  N   UNK N   1      77.209   4.423  16.511  0.00  0.00    -0.235 N 
HETATM   28  N   UNK N   1      77.849   3.801  18.546  0.00  0.00    -0.235 N 
HETATM   29  H   UNK N   1      78.030   3.954  16.163  0.00  0.00     0.174 HD
HETATM   30  H   UNK N   1      76.586   4.826  15.827  0.00  0.00     0.174 HD
HETATM   31  H   UNK N   1      78.550   3.201  18.144  0.00  0.00     0.174 HD
HETATM   32  H   UNK N   1      77.711   3.771  19.549  0.00  0.00     0.174 HD
ATOM     33  HN  UNK N   1      75.911   4.981  19.455  1.00  0.00     0.178 HD
ENDBRANCH   5  25
TORSDOF 10
ENDMDL
MODEL 5
REMARK VINA RESULT:      -7.0      2.631      5.200
REMARK  10 active torsions:
REMARK  status: ('A' for Active; 'I' for Inactive)
REMARK    1  A    between atoms: C_2  and  O_3 
REMARK    2  A    between atoms: C_2  and  C_4 
REMARK    3  A    between atoms: C_7  and  C_10 
REMARK    4  A    between atoms: C_8  and  N_11 
REMARK    5  A    between atoms: C_9  and  N_13 
REMARK    6  A    between atoms: C_10  and  O_14 
REMARK    7  A    between atoms: C_10  and  C_15 
REMARK       I    between atoms: N_11  and  C_16 
REMARK       I    between atoms: N_13  and  C_17 
REMARK    8  A    between atoms: C_15  and  O_18 
REMARK    9  A    between atoms: C_15  and  C_19 
REMARK       I    between atoms: C_16  and  N_20 
REMARK   10  A    between atoms: C_19  and  O_24 
ROOT
HETATM    1  C   UNK N   1      93.576  14.039  39.730  0.00  0.00     0.141 C 
HETATM    2  O   UNK N   1      92.756  14.251  40.822  0.00  0.00    -0.335 OA
HETATM    3  C   UNK N   1      94.917  14.023  39.819  0.00  0.00     0.044 C 
HETATM    4  C   UNK N   1      93.389  14.781  42.021  0.00  0.00     0.185 C 
HETATM    5  C   UNK N   1      95.634  14.191  41.120  0.00  0.00     0.150 C 
HETATM    6  C   UNK N   1      94.671  13.979  42.326  0.00  0.00     0.143 C 
ENDROOT
BRANCH   4   7
HETATM    7  C   UNK N   1      92.278  14.736  43.093  0.00  0.00     0.180 C 
BRANCH   7   8
HETATM    8  O   UNK N   1      91.017  14.380  42.444  0.00  0.00    -0.390 OA
HETATM    9  H   UNK N   1      90.495  15.211  42.425  0.00  0.00     0.210 HD
ENDBRANCH   7   8
BRANCH   7  10
HETATM   10  C   UNK N   1      91.984  16.028  43.883  0.00  0.00     0.173 C 
BRANCH  10  11
HETATM   11  O   UNK N   1      93.251  16.653  44.192  0.00  0.00    -0.391 OA
HETATM   12  H   UNK N   1      93.828  16.451  43.425  0.00  0.00     0.210 HD
ENDBRANCH  10  11
BRANCH  10  13
HETATM   13  C   UNK N   1      91.235  15.840  45.210  0.00  0.00     0.198 C 
BRANCH  13  14
HETATM   14  O   UNK N   1      89.838  15.627  45.024  0.00  0.00    -0.398 OA
HETATM   15  H   UNK N   1      89.550  15.039  45.750  0.00  0.00     0.209 HD
ENDBRANCH  13  14
ENDBRANCH  10  13
ENDBRANCH   7  10
ENDBRANCH   4   7
BRANCH   6  16
HETATM   16  N   UNK N   1      95.356  14.321  43.574  0.00  0.00    -0.352 N 
HETATM   17  C   UNK N   1      95.491  13.409  44.596  0.00  0.00     0.214 C 
HETATM   18  O   UNK N   1      94.884  12.345  44.636  0.00  0.00    -0.274 OA
HETATM   19  C   UNK N   1      96.392  13.871  45.708  0.00  0.00     0.117 C 
HETATM   20  H   UNK N   1      95.933  15.153  43.589  0.00  0.00     0.163 HD
ENDBRANCH   6  16
BRANCH   1  21
HETATM   21  C   UNK N   1      92.884  13.812  38.429  0.00  0.00     0.200 C 
HETATM   22  O   UNK N   1      91.753  14.183  38.161  0.00  0.00    -0.645 OA
BRANCH  21  23
HETATM   23  O   UNK N   1      93.625  13.158  37.516  0.00  0.00    -0.771 OA
HETATM   24  H   UNK N   1      93.571  13.738  36.728  0.00  0.00     0.167 HD
ENDBRANCH  21  23
ENDBRANCH   1  21
BRANCH   5  25
HETATM   25  N   UNK N   1      96.722  13.222  41.220  0.00  0.00    -0.217 N 
HETATM   26  C   UNK N   1      97.943  13.603  41.253  0.00  0.00     0.665 C 
HETATM   27  N   UNK N   1      98.454  14.844  41.179  0.00  0.00    -0.235 N 
HETATM   28  N   UNK N   1      98.906  12.677  41.379  0.00  0.00    -0.235 N 
HETATM   29  H   UNK N   1      99.445  15.008  41.256  0.00  0.00     0.174 HD
HETATM   30  H   UNK N   1      97.868  15.650  41.016  0.00  0.00     0.174 HD
HETATM   31  H   UNK N   1      99.887  12.871  41.273  0.00  0.00     0.174 HD
HETATM   32  H   UNK N   1      98.609  11.710  41.420  0.00  0.00     0.174 HD
ATOM     33  HN  UNK N   1      96.506  12.225  41.264  1.00  0.00     0.178 HD
ENDBRANCH   5  25
TORSDOF 10
ENDMDL
MODEL 6
REMARK VINA RESULT:      -6.9      2.761      3.553
REMARK  10 active torsions:
REMARK  status: ('A' for Active; 'I' for Inactive)
REMARK    1  A    between atoms: C_2  and  O_3 
REMARK    2  A    between atoms: C_2  and  C_4 
REMARK    3  A    between atoms: C_7  and  C_10 
REMARK    4  A    between atoms: C_8  and  N_11 
REMARK    5  A    between atoms: C_9  and  N_13 
REMARK    6  A    between atoms: C_10  and  O_14 
REMARK    7  A    between atoms: C_10  and  C_15 
REMARK       I    between atoms: N_11  and  C_16 
REMARK       I    between atoms: N_13  and  C_17 
REMARK    8  A    between atoms: C_15  and  O_18 
REMARK    9  A    between atoms: C_15  and  C_19 
REMARK       I    between atoms: C_16  and  N_20 
REMARK   10  A    between atoms: C_19  and  O_24 
ROOT
HETATM    1  C   UNK N   1      90.114  16.070  43.485  0.00  0.00     0.141 C 
HETATM    2  O   UNK N   1      88.970  15.446  43.946  0.00  0.00    -0.335 OA
HETATM    3  C   UNK N   1      90.798  15.635  42.413  0.00  0.00     0.044 C 
HETATM    4  C   UNK N   1      88.703  14.110  43.435  0.00  0.00     0.185 C 
HETATM    5  C   UNK N   1      90.352  14.461  41.603  0.00  0.00     0.150 C 
HETATM    6  C   UNK N   1      88.866  14.102  41.900  0.00  0.00     0.143 C 
ENDROOT
BRANCH   4   7
HETATM    7  C   UNK N   1      87.300  13.764  43.979  0.00  0.00     0.180 C 
BRANCH   7   8
HETATM    8  O   UNK N   1      86.377  13.647  42.852  0.00  0.00    -0.390 OA
HETATM    9  H   UNK N   1      86.092  12.708  42.851  0.00  0.00     0.210 HD
ENDBRANCH   7   8
BRANCH   7  10
HETATM   10  C   UNK N   1      86.638  14.761  44.953  0.00  0.00     0.173 C 
BRANCH  10  11
HETATM   11  O   UNK N   1      87.062  14.418  46.291  0.00  0.00    -0.391 OA
HETATM   12  H   UNK N   1      87.660  13.649  46.180  0.00  0.00     0.210 HD
ENDBRANCH  10  11
BRANCH  10  13
HETATM   13  C   UNK N   1      85.102  14.769  44.952  0.00  0.00     0.198 C 
BRANCH  13  14
HETATM   14  O   UNK N   1      84.548  13.502  45.295  0.00  0.00    -0.398 OA
HETATM   15  H   UNK N   1      83.577  13.605  45.253  0.00  0.00     0.209 HD
ENDBRANCH  13  14
ENDBRANCH  10  13
ENDBRANCH   7  10
ENDBRANCH   4   7
BRANCH   6  16
HETATM   16  N   UNK N   1      88.514  12.849  41.228  0.00  0.00    -0.352 N 
HETATM   17  C   UNK N   1      87.938  12.840  39.978  0.00  0.00     0.214 C 
HETATM   18  O   UNK N   1      87.487  13.841  39.434  0.00  0.00    -0.274 OA
HETATM   19  C   UNK N   1      87.834  11.470  39.367  0.00  0.00     0.117 C 
HETATM   20  H   UNK N   1      88.910  11.988  41.584  0.00  0.00     0.163 HD
ENDBRANCH   6  16
BRANCH   1  21
HETATM   21  C   UNK N   1      90.549  17.277  44.243  0.00  0.00     0.200 C 
HETATM   22  O   UNK N   1      90.878  17.288  45.418  0.00  0.00    -0.645 OA
BRANCH  21  23
HETATM   23  O   UNK N   1      90.577  18.408  43.514  0.00  0.00    -0.771 OA
HETATM   24  H   UNK N   1      91.520  18.669  43.543  0.00  0.00     0.167 HD
ENDBRANCH  21  23
ENDBRANCH   1  21
BRANCH   5  25
HETATM   25  N   UNK N   1      90.480  14.760  40.178  0.00  0.00    -0.217 N 
HETATM   26  C   UNK N   1      91.438  14.272  39.486  0.00  0.00     0.665 C 
HETATM   27  N   UNK N   1      92.458  13.484  39.871  0.00  0.00    -0.235 N 
HETATM   28  N   UNK N   1      91.495  14.549  38.174  0.00  0.00    -0.235 N 
HETATM   29  H   UNK N   1      93.132  13.137  39.207  0.00  0.00     0.174 HD
HETATM   30  H   UNK N   1      92.600  13.237  40.839  0.00  0.00     0.174 HD
HETATM   31  H   UNK N   1      92.281  14.327  37.587  0.00  0.00     0.174 HD
HETATM   32  H   UNK N   1      90.775  15.156  37.803  0.00  0.00     0.174 HD
ATOM     33  HN  UNK N   1      89.794  15.368  39.728  1.00  0.00     0.178 HD
ENDBRANCH   5  25
TORSDOF 10
ENDMDL
MODEL 7
REMARK VINA RESULT:      -6.7      3.012      5.513
REMARK  10 active torsions:
REMARK  status: ('A' for Active; 'I' for Inactive)
REMARK    1  A    between atoms: C_2  and  O_3 
REMARK    2  A    between atoms: C_2  and  C_4 
REMARK    3  A    between atoms: C_7  and  C_10 
REMARK    4  A    between atoms: C_8  and  N_11 
REMARK    5  A    between atoms: C_9  and  N_13 
REMARK    6  A    between atoms: C_10  and  O_14 
REMARK    7  A    between atoms: C_10  and  C_15 
REMARK       I    between atoms: N_11  and  C_16 
REMARK       I    between atoms: N_13  and  C_17 
REMARK    8  A    between atoms: C_15  and  O_18 
REMARK    9  A    between atoms: C_15  and  C_19 
REMARK       I    between atoms: C_16  and  N_20 
REMARK   10  A    between atoms: C_19  and  O_24 
ROOT
HETATM    1  C   UNK N   1      90.610  15.774  42.823  0.00  0.00     0.141 C 
HETATM    2  O   UNK N   1      91.873  15.335  42.475  0.00  0.00    -0.335 OA
HETATM    3  C   UNK N   1      89.493  15.320  42.229  0.00  0.00     0.044 C 
HETATM    4  C   UNK N   1      91.989  14.603  41.223  0.00  0.00     0.185 C 
HETATM    5  C   UNK N   1      89.523  14.267  41.170  0.00  0.00     0.150 C 
HETATM    6  C   UNK N   1      90.891  13.522  41.154  0.00  0.00     0.143 C 
ENDROOT
BRANCH   4   7
HETATM    7  C   UNK N   1      93.450  14.102  41.205  0.00  0.00     0.180 C 
BRANCH   7   8
HETATM    8  O   UNK N   1      93.470  12.704  41.632  0.00  0.00    -0.390 OA
HETATM    9  H   UNK N   1      93.327  12.730  42.602  0.00  0.00     0.210 HD
ENDBRANCH   7   8
BRANCH   7  10
HETATM   10  C   UNK N   1      94.471  14.824  42.110  0.00  0.00     0.173 C 
BRANCH  10  11
HETATM   11  O   UNK N   1      95.549  15.294  41.269  0.00  0.00    -0.391 OA
HETATM   12  H   UNK N   1      95.153  16.003  40.720  0.00  0.00     0.210 HD
ENDBRANCH  10  11
BRANCH  10  13
HETATM   13  C   UNK N   1      95.100  13.965  43.217  0.00  0.00     0.198 C 
BRANCH  13  14
HETATM   14  O   UNK N   1      95.312  14.696  44.422  0.00  0.00    -0.398 OA
HETATM   15  H   UNK N   1      94.643  14.375  45.060  0.00  0.00     0.209 HD
ENDBRANCH  13  14
ENDBRANCH  10  13
ENDBRANCH   7  10
ENDBRANCH   4   7
BRANCH   6  16
HETATM   16  N   UNK N   1      90.953  12.622  39.999  0.00  0.00    -0.352 N 
HETATM   17  C   UNK N   1      90.641  11.287  40.109  0.00  0.00     0.214 C 
HETATM   18  O   UNK N   1      90.501  10.711  41.182  0.00  0.00    -0.274 OA
HETATM   19  C   UNK N   1      90.565  10.570  38.789  0.00  0.00     0.117 C 
HETATM   20  H   UNK N   1      90.999  13.034  39.075  0.00  0.00     0.163 HD
ENDBRANCH   6  16
BRANCH   1  21
HETATM   21  C   UNK N   1      90.549  16.786  43.916  0.00  0.00     0.200 C 
HETATM   22  O   UNK N   1      90.553  16.532  45.110  0.00  0.00    -0.645 OA
BRANCH  21  23
HETATM   23  O   UNK N   1      90.505  18.061  43.488  0.00  0.00    -0.771 OA
HETATM   24  H   UNK N   1      89.565  18.180  43.237  0.00  0.00     0.167 HD
ENDBRANCH  21  23
ENDBRANCH   1  21
BRANCH   5  25
HETATM   25  N   UNK N   1      88.465  13.287  41.410  0.00  0.00    -0.217 N 
HETATM   26  C   UNK N   1      87.556  13.073  40.536  0.00  0.00     0.665 C 
HETATM   27  N   UNK N   1      87.362  13.658  39.341  0.00  0.00    -0.235 N 
HETATM   28  N   UNK N   1      86.625  12.140  40.788  0.00  0.00    -0.235 N 
HETATM   29  H   UNK N   1      86.618  13.364  38.728  0.00  0.00     0.174 HD
HETATM   30  H   UNK N   1      87.936  14.427  39.028  0.00  0.00     0.174 HD
HETATM   31  H   UNK N   1      85.800  12.005  40.228  0.00  0.00     0.174 HD
HETATM   32  H   UNK N   1      86.683  11.664  41.679  0.00  0.00     0.174 HD
ATOM     33  HN  UNK N   1      88.452  12.765  42.287  1.00  0.00     0.178 HD
ENDBRANCH   5  25
TORSDOF 10
ENDMDL
MODEL 8
REMARK VINA RESULT:      -6.6     14.965     16.813
REMARK  10 active torsions:
REMARK  status: ('A' for Active; 'I' for Inactive)
REMARK    1  A    between atoms: C_2  and  O_3 
REMARK    2  A    between atoms: C_2  and  C_4 
REMARK    3  A    between atoms: C_7  and  C_10 
REMARK    4  A    between atoms: C_8  and  N_11 
REMARK    5  A    between atoms: C_9  and  N_13 
REMARK    6  A    between atoms: C_10  and  O_14 
REMARK    7  A    between atoms: C_10  and  C_15 
REMARK       I    between atoms: N_11  and  C_16 
REMARK       I    between atoms: N_13  and  C_17 
REMARK    8  A    between atoms: C_15  and  O_18 
REMARK    9  A    between atoms: C_15  and  C_19 
REMARK       I    between atoms: C_16  and  N_20 
REMARK   10  A    between atoms: C_19  and  O_24 
ROOT
HETATM    1  C   UNK N   1      82.343  26.356  37.731  0.00  0.00     0.141 C 
HETATM    2  O   UNK N   1      81.851  25.211  38.329  0.00  0.00    -0.335 OA
HETATM    3  C   UNK N   1      81.547  27.293  37.189  0.00  0.00     0.044 C 
HETATM    4  C   UNK N   1      80.456  24.886  38.070  0.00  0.00     0.185 C 
HETATM    5  C   UNK N   1      80.056  27.194  37.226  0.00  0.00     0.150 C 
HETATM    6  C   UNK N   1      79.587  26.144  38.276  0.00  0.00     0.143 C 
ENDROOT
BRANCH   4   7
HETATM    7  C   UNK N   1      80.163  23.687  38.997  0.00  0.00     0.180 C 
BRANCH   7   8
HETATM    8  O   UNK N   1      80.087  24.169  40.375  0.00  0.00    -0.390 OA
HETATM    9  H   UNK N   1      80.948  24.609  40.541  0.00  0.00     0.210 HD
ENDBRANCH   7   8
BRANCH   7  10
HETATM   10  C   UNK N   1      81.182  22.528  39.022  0.00  0.00     0.173 C 
BRANCH  10  11
HETATM   11  O   UNK N   1      81.485  22.179  37.653  0.00  0.00    -0.391 OA
HETATM   12  H   UNK N   1      82.400  22.499  37.506  0.00  0.00     0.210 HD
ENDBRANCH  10  11
BRANCH  10  13
HETATM   13  C   UNK N   1      80.711  21.246  39.724  0.00  0.00     0.198 C 
BRANCH  13  14
HETATM   14  O   UNK N   1      80.911  21.289  41.135  0.00  0.00    -0.398 OA
HETATM   15  H   UNK N   1      81.315  20.434  41.383  0.00  0.00     0.209 HD
ENDBRANCH  13  14
ENDBRANCH  10  13
ENDBRANCH   7  10
ENDBRANCH   4   7
BRANCH   6  16
HETATM   16  N   UNK N   1      78.139  25.944  38.165  0.00  0.00    -0.352 N 
HETATM   17  C   UNK N   1      77.313  26.038  39.262  0.00  0.00     0.214 C 
HETATM   18  O   UNK N   1      77.724  26.079  40.416  0.00  0.00    -0.274 OA
HETATM   19  C   UNK N   1      75.848  26.003  38.923  0.00  0.00     0.117 C 
HETATM   20  H   UNK N   1      77.723  25.968  37.242  0.00  0.00     0.163 HD
ENDBRANCH   6  16
BRANCH   1  21
HETATM   21  C   UNK N   1      83.826  26.506  37.730  0.00  0.00     0.200 C 
HETATM   22  O   UNK N   1      84.545  26.394  38.710  0.00  0.00    -0.645 OA
BRANCH  21  23
HETATM   23  O   UNK N   1      84.354  26.767  36.520  0.00  0.00    -0.771 OA
HETATM   24  H   UNK N   1      83.868  27.568  36.233  0.00  0.00     0.167 HD
ENDBRANCH  21  23
ENDBRANCH   1  21
BRANCH   5  25
HETATM   25  N   UNK N   1      79.478  28.490  37.577  0.00  0.00    -0.217 N 
HETATM   26  C   UNK N   1      79.181  29.345  36.674  0.00  0.00     0.665 C 
HETATM   27  N   UNK N   1      79.344  29.273  35.341  0.00  0.00    -0.235 N 
HETATM   28  N   UNK N   1      78.622  30.507  37.042  0.00  0.00    -0.235 N 
HETATM   29  H   UNK N   1      79.028  30.013  34.734  0.00  0.00     0.174 HD
HETATM   30  H   UNK N   1      79.811  28.492  34.905  0.00  0.00     0.174 HD
HETATM   31  H   UNK N   1      78.486  31.287  36.421  0.00  0.00     0.174 HD
HETATM   32  H   UNK N   1      78.483  30.654  38.034  0.00  0.00     0.174 HD
ATOM     33  HN  UNK N   1      79.308  28.716  38.558  1.00  0.00     0.178 HD
ENDBRANCH   5  25
TORSDOF 10
ENDMDL
MODEL 9
REMARK VINA RESULT:      -6.6      6.385      9.089
REMARK  10 active torsions:
REMARK  status: ('A' for Active; 'I' for Inactive)
REMARK    1  A    between atoms: C_2  and  O_3 
REMARK    2  A    between atoms: C_2  and  C_4 
REMARK    3  A    between atoms: C_7  and  C_10 
REMARK    4  A    between atoms: C_8  and  N_11 
REMARK    5  A    between atoms: C_9  and  N_13 
REMARK    6  A    between atoms: C_10  and  O_14 
REMARK    7  A    between atoms: C_10  and  C_15 
REMARK       I    between atoms: N_11  and  C_16 
REMARK       I    between atoms: N_13  and  C_17 
REMARK    8  A    between atoms: C_15  and  O_18 
REMARK    9  A    between atoms: C_15  and  C_19 
REMARK       I    between atoms: C_16  and  N_20 
REMARK   10  A    between atoms: C_19  and  O_24 
ROOT
HETATM    1  C   UNK N   1      86.094  14.952  45.318  0.00  0.00     0.141 C 
HETATM    2  O   UNK N   1      86.141  14.907  46.698  0.00  0.00    -0.335 OA
HETATM    3  C   UNK N   1      85.036  15.431  44.642  0.00  0.00     0.044 C 
HETATM    4  C   UNK N   1      84.881  15.093  47.402  0.00  0.00     0.185 C 
HETATM    5  C   UNK N   1      83.836  15.996  45.330  0.00  0.00     0.150 C 
HETATM    6  C   UNK N   1      84.142  16.318  46.823  0.00  0.00     0.143 C 
ENDROOT
BRANCH   4   7
HETATM    7  C   UNK N   1      85.281  15.171  48.891  0.00  0.00     0.180 C 
BRANCH   7   8
HETATM    8  O   UNK N   1      85.623  16.556  49.211  0.00  0.00    -0.390 OA
HETATM    9  H   UNK N   1      86.103  16.890  48.424  0.00  0.00     0.210 HD
ENDBRANCH   7   8
BRANCH   7  10
HETATM   10  C   UNK N   1      86.487  14.330  49.360  0.00  0.00     0.173 C 
BRANCH  10  11
HETATM   11  O   UNK N   1      85.982  13.057  49.822  0.00  0.00    -0.391 OA
HETATM   12  H   UNK N   1      85.710  12.581  49.009  0.00  0.00     0.210 HD
ENDBRANCH  10  11
BRANCH  10  13
HETATM   13  C   UNK N   1      87.313  14.934  50.505  0.00  0.00     0.198 C 
BRANCH  13  14
HETATM   14  O   UNK N   1      88.344  15.799  50.038  0.00  0.00    -0.398 OA
HETATM   15  H   UNK N   1      87.908  16.637  49.786  0.00  0.00     0.209 HD
ENDBRANCH  13  14
ENDBRANCH  10  13
ENDBRANCH   7  10
ENDBRANCH   4   7
BRANCH   6  16
HETATM   16  N   UNK N   1      82.907  16.702  47.511  0.00  0.00    -0.352 N 
HETATM   17  C   UNK N   1      82.761  17.943  48.089  0.00  0.00     0.214 C 
HETATM   18  O   UNK N   1      83.690  18.722  48.261  0.00  0.00    -0.274 OA
HETATM   19  C   UNK N   1      81.364  18.228  48.568  0.00  0.00     0.117 C 
HETATM   20  H   UNK N   1      82.080  16.139  47.357  0.00  0.00     0.163 HD
ENDBRANCH   6  16
BRANCH   1  21
HETATM   21  C   UNK N   1      87.302  14.445  44.607  0.00  0.00     0.200 C 
HETATM   22  O   UNK N   1      87.288  13.702  43.639  0.00  0.00    -0.645 OA
BRANCH  21  23
HETATM   23  O   UNK N   1      88.468  14.892  45.110  0.00  0.00    -0.771 OA
HETATM   24  H   UNK N   1      88.793  14.129  45.631  0.00  0.00     0.167 HD
ENDBRANCH  21  23
ENDBRANCH   1  21
BRANCH   5  25
HETATM   25  N   UNK N   1      83.414  17.229  44.668  0.00  0.00    -0.217 N 
HETATM   26  C   UNK N   1      82.515  17.213  43.759  0.00  0.00     0.665 C 
HETATM   27  N   UNK N   1      81.846  16.171  43.234  0.00  0.00    -0.235 N 
HETATM   28  N   UNK N   1      82.138  18.375  43.203  0.00  0.00    -0.235 N 
HETATM   29  H   UNK N   1      81.127  16.306  42.540  0.00  0.00     0.174 HD
HETATM   30  H   UNK N   1      82.057  15.220  43.495  0.00  0.00     0.174 HD
HETATM   31  H   UNK N   1      81.546  18.443  42.392  0.00  0.00     0.174 HD
HETATM   32  H   UNK N   1      82.608  19.211  43.525  0.00  0.00     0.174 HD
ATOM     33  HN  UNK N   1      83.844  18.116  44.935  1.00  0.00     0.178 HD
ENDBRANCH   5  25
TORSDOF 10
ENDMDL
